     192
 i =        6, E =     -5783.4158444135
Ti         0.0001569793        0.0001546166       -0.0003226928
Ti         0.0000123172       -0.0000839150        0.0003170630
Ti         0.0001091935        0.0002422845        0.0004961730
Ti        -0.0000860345        0.0001726575       -0.0005759900
Ti         0.0002155407       -0.0002040553       -0.0002958285
Ti         0.0000055440       -0.0000495346        0.0003901054
Ti        -0.0000633427       -0.0000329088        0.0004007044
Ti        -0.0000566613        0.0000423720       -0.0003026655
Ti        -0.0001193481       -0.0000290360       -0.0004318772
Ti         0.0000378165       -0.0001325287        0.0004419953
Ti         0.0001201768        0.0000347029        0.0001399218
Ti         0.0001027238       -0.0001377760       -0.0001672989
Ti         0.0002144579       -0.0001254162       -0.0002762838
Ti        -0.0000728630        0.0000293060        0.0001890757
Ti        -0.0002565803        0.0000795139       -0.0003516697
Ti        -0.0000771861       -0.0000019379        0.0005234667
Ti         0.0000072824        0.0000830440        0.0004415177
Ti         0.0002181146       -0.0002619745       -0.0003664532
Ti         0.0000259523        0.0001104978        0.0003468917
Ti        -0.0001568207        0.0000127604       -0.0003442462
Ti         0.0001444365       -0.0000876357       -0.0002679399
Ti         0.0000314329       -0.0001604545        0.0003648411
Ti        -0.0000944137        0.0002109715        0.0004318488
Ti        -0.0000585459        0.0001784688       -0.0003657095
Ti        -0.0000396922        0.0000168311       -0.0004646334
Ti         0.0001459563        0.0001871015        0.0003018415
Ti         0.0000391878       -0.0001052360        0.0001937121
Ti        -0.0000186604        0.0001694649       -0.0003617026
Ti         0.0000908808        0.0000572175       -0.0003269861
Ti        -0.0000509428       -0.0002372892        0.0002916110
Ti         0.0000297634        0.0002964478        0.0001490586
Ti        -0.0000093081        0.0000822829       -0.0002394732
Ti        -0.0001389531        0.0000840057       -0.0003745795
Ti         0.0000203992        0.0000705285        0.0003384001
Ti         0.0000837442       -0.0000249696        0.0002451675
Ti         0.0000331168        0.0000499836       -0.0003334831
Ti         0.0000106968        0.0001254832        0.0001564772
Ti         0.0000010294        0.0000582603       -0.0002812849
Ti         0.0001157352        0.0000264036       -0.0003883919
Ti        -0.0000811992       -0.0000186797        0.0003355859
Ti         0.0001226805       -0.0001891357        0.0002312408
Ti         0.0000423789        0.0000323704       -0.0002321710
Ti        -0.0001320075        0.0001346457       -0.0002455465
Ti         0.0000324261        0.0002577598        0.0002336035
Ti         0.0001377919       -0.0002667320       -0.0002005289
Ti        -0.0000822393       -0.0000097172        0.0002921482
Ti        -0.0001473231        0.0000693906        0.0003175554
Ti        -0.0001087435        0.0000093665       -0.0002026833
Ti        -0.0001720865       -0.0000856909       -0.0003114664
Ti        -0.0000434507       -0.0000315816        0.0003767259
Ti         0.0000040782        0.0000859485        0.0003226762
Ti         0.0000353221       -0.0002162299       -0.0004115800
Ti        -0.0000858392       -0.0000087610        0.0002622826
Ti        -0.0000656661       -0.0000600212       -0.0002624350
Ti         0.0000750173       -0.0000011644        0.0002007585
Ti         0.0001009506       -0.0003318895       -0.0001363340
Ti        -0.0001295281       -0.0000221612       -0.0002944807
Ti        -0.0002049431       -0.0001229026        0.0004010922
Ti         0.0000057058       -0.0001618678       -0.0002954083
Ti         0.0000395246       -0.0000629459        0.0003139869
Ti        -0.0000285234       -0.0000754645       -0.0002716743
Ti         0.0000174009       -0.0000915476        0.0002800180
Ti        -0.0000818937        0.0001546113        0.0003279185
Ti        -0.0000457872       -0.0000026226       -0.0003552016
O         0.0000127107       -0.0000722338        0.0002202593
O         0.0000820755       -0.0002410987       -0.0001333969
O        -0.0000273998        0.0001268644       -0.0001318281
O        -0.0002626590        0.0000804716        0.0004519198
O         0.0001164861        0.0000754370        0.0002149822
O         0.0000388609       -0.0000983012       -0.0004733891
O        -0.0000760385        0.0000349841       -0.0002584227
O         0.0001164790        0.0000803766        0.0001099441
O         0.0000411771       -0.0002286657        0.0003543574
O         0.0001071261       -0.0000542301       -0.0002175959
O         0.0000451168        0.0000639653       -0.0000985156
O        -0.0001401857        0.0000430233        0.0003472920
O         0.0000300390       -0.0000440603        0.0001183768
O        -0.0000391136        0.0001204475       -0.0003480120
O         0.0000560900        0.0000694415       -0.0002080665
O         0.0002485508       -0.0000279075       -0.0000204561
O        -0.0000039283        0.0000125967        0.0000094766
O         0.0000470967        0.0000893174       -0.0001241630
O        -0.0000799244       -0.0000160267        0.0003027253
O        -0.0001560131        0.0000419909       -0.0001297654
O         0.0000829466       -0.0000508510       -0.0001483684
O         0.0000315065       -0.0000360825        0.0003132346
O         0.0000155675        0.0001596306       -0.0004354105
O         0.0000625036        0.0001622432        0.0001072630
O         0.0000611469       -0.0002281717        0.0003249447
O         0.0000743819        0.0000984593       -0.0000941251
O        -0.0001147995        0.0001293173        0.0000154654
O        -0.0000220711        0.0000413396        0.0003670485
O         0.0000780139        0.0000201305        0.0000683225
O         0.0000242509        0.0003088006       -0.0003812276
O         0.0001709709        0.0000529345       -0.0002486679
O         0.0000930269        0.0000434690        0.0000540599
O         0.0001026360        0.0000143597        0.0002823903
O        -0.0000200126       -0.0002048203       -0.0000942933
O         0.0000295822        0.0000415701       -0.0000594173
O        -0.0002243851       -0.0001340955        0.0003064595
O        -0.0000537584        0.0000496378        0.0001190491
O         0.0000431740       -0.0001403030       -0.0004357283
O        -0.0001417155       -0.0000442210       -0.0003253883
O         0.0001070914       -0.0001745214        0.0001056447
O        -0.0001143363       -0.0000049726       -0.0003550299
O        -0.0000722705        0.0000810537        0.0001378368
O         0.0000669373       -0.0001723823       -0.0000913984
O        -0.0000731872       -0.0001164516        0.0002253476
O        -0.0002666263        0.0001122595        0.0002910096
O        -0.0000401012       -0.0000468705       -0.0001356339
O         0.0001188330        0.0000753324        0.0000711768
O        -0.0000644869       -0.0000140794       -0.0002082567
O         0.0001038183       -0.0002455387        0.0003117972
O        -0.0000692449       -0.0000439786       -0.0000863405
O         0.0000811763        0.0000824008        0.0000669433
O        -0.0001379377       -0.0000489753        0.0003421530
O        -0.0000013853       -0.0000440876        0.0000850113
O         0.0000791244        0.0000486659       -0.0003816891
O         0.0000694418       -0.0000339108       -0.0002884342
O         0.0002412142       -0.0000786978        0.0001498405
O        -0.0000535121        0.0001200409       -0.0002575751
O        -0.0000104313       -0.0000951890        0.0000294587
O        -0.0000185944       -0.0000841137        0.0001115455
O        -0.0000186969       -0.0000865778       -0.0002715284
O         0.0000641252       -0.0000709320       -0.0001167526
O        -0.0000775683       -0.0002547665        0.0002665041
O        -0.0000956460       -0.0000719206        0.0002345624
O        -0.0001598131        0.0001014038        0.0000785035
O         0.0000644902       -0.0000142630       -0.0000190895
O        -0.0000556832       -0.0000186095        0.0002674628
O        -0.0000949793        0.0001223681        0.0002626642
O        -0.0002166265        0.0000221608       -0.0000287877
O        -0.0000756017        0.0001202392       -0.0003889112
O        -0.0000029191        0.0001846989        0.0000501529
O         0.0000081958        0.0001110073        0.0001086257
O         0.0000062443       -0.0000403178       -0.0002296789
O        -0.0000316717        0.0001804650        0.0000140946
O         0.0000695449        0.0001255841       -0.0004007172
O         0.0001091106       -0.0000839281       -0.0002730410
O         0.0001857279        0.0001048517        0.0000562778
O         0.0000907508        0.0000128813        0.0002793820
O        -0.0000206830       -0.0000487780       -0.0000701700
O         0.0001180604        0.0000256330        0.0000753430
O        -0.0001251847        0.0001401617        0.0002799903
O         0.0000962587       -0.0001830577        0.0003382616
O        -0.0000352103        0.0000517370       -0.0000938492
O        -0.0000783937        0.0000606362        0.0000256371
O        -0.0000201341       -0.0000953959        0.0002546204
O        -0.0000817046        0.0000673085        0.0000515541
O         0.0000222747        0.0003263807       -0.0003858681
O         0.0002041761       -0.0000407495       -0.0002658681
O         0.0000701342       -0.0001291107        0.0000194702
O        -0.0000914072        0.0002519863       -0.0003404101
O        -0.0000239057        0.0000242192        0.0000380103
O         0.0000965717        0.0000896360       -0.0000646097
O        -0.0000571196       -0.0001474266        0.0003400266
O         0.0000699196        0.0000797373        0.0002873777
O        -0.0000854804       -0.0000569864       -0.0000152993
O         0.0000753690        0.0000279636       -0.0000186438
O         0.0001511925       -0.0000105390       -0.0002749990
O         0.0000494235       -0.0000538346        0.0002898763
O        -0.0000815775       -0.0001503276       -0.0000541656
O         0.0000408725       -0.0000270526       -0.0000238065
O        -0.0002574774        0.0000395688        0.0003444731
O        -0.0000815446        0.0000511832        0.0001457230
O        -0.0000561006       -0.0000619965       -0.0004252881
O        -0.0001081242       -0.0001043985       -0.0002512204
O         0.0001245515       -0.0000724029        0.0001230372
O         0.0000117457       -0.0002641108        0.0003606528
O        -0.0000680671       -0.0000696242       -0.0001799228
O         0.0001302556       -0.0001148424        0.0000045187
O        -0.0000778743       -0.0000148111        0.0002877000
O        -0.0001126430       -0.0000879169        0.0000799623
O        -0.0000683217        0.0000343483       -0.0003466453
O         0.0000871471       -0.0000829853       -0.0001910833
O         0.0001848030       -0.0000841010       -0.0000204809
O        -0.0000245754       -0.0001269335       -0.0000178888
O        -0.0000628478       -0.0000692380       -0.0001753023
O        -0.0001359257        0.0000451356        0.0002391783
O        -0.0002137092       -0.0000820202       -0.0000703492
O        -0.0000433546       -0.0000510528       -0.0001263332
O         0.0000120067        0.0000467159        0.0004037369
O        -0.0001109059        0.0001610755       -0.0003997286
O        -0.0001316780        0.0001847945        0.0000939353
O        -0.0000008338       -0.0001842007        0.0003343852
O        -0.0000763079        0.0000313201       -0.0000877711
O        -0.0001064857       -0.0000295404        0.0000307238
O         0.0000576338        0.0000580364        0.0003492720
O        -0.0000810282        0.0000069443        0.0000812084
O        -0.0000768390        0.0002526793       -0.0004302810
O         0.0001876383       -0.0001290858       -0.0002762553
O         0.0000632268       -0.0000672059        0.0000057847
     192
 i =        7, E =     -5783.4159018784
Ti         0.0002570293        0.0000463088       -0.0001630860
Ti         0.0000566768        0.0000411194        0.0001156237
Ti         0.0000609354        0.0001743459        0.0003231998
Ti        -0.0000867337        0.0000487733       -0.0002375823
Ti         0.0001549263       -0.0000549228       -0.0001719015
Ti         0.0000964821       -0.0002338296        0.0002719857
Ti        -0.0000879018        0.0001918914        0.0001659554
Ti        -0.0000658438        0.0001467898       -0.0002378789
Ti        -0.0000626140        0.0000978825       -0.0002375390
Ti         0.0000589169        0.0000275613        0.0002151482
Ti         0.0001468879       -0.0000304319        0.0000445637
Ti         0.0000245882        0.0000412951       -0.0000714260
Ti         0.0001368190        0.0000619160       -0.0001148462
Ti        -0.0000608242       -0.0000711907        0.0000870350
Ti        -0.0001627483        0.0001643053       -0.0002838887
Ti         0.0000332484        0.0001477139        0.0001775441
Ti         0.0000765107        0.0000124507        0.0001530003
Ti         0.0002488458       -0.0001800576       -0.0002448683
Ti         0.0001024776        0.0001941341        0.0001961892
Ti        -0.0000383574        0.0000408538       -0.0002705063
Ti         0.0002140783       -0.0002566150       -0.0001324331
Ti         0.0000062421       -0.0000118707        0.0001645259
Ti        -0.0001505534        0.0000985888        0.0002280897
Ti        -0.0001213878        0.0000912260       -0.0002135346
Ti        -0.0000362874       -0.0000335738       -0.0001770001
Ti         0.0000546997        0.0000529473        0.0003186964
Ti        -0.0000181015        0.0000405708        0.0000514887
Ti         0.0000055372        0.0000277282       -0.0000298571
Ti         0.0001563336       -0.0001133325       -0.0000751424
Ti        -0.0001365641       -0.0001254968        0.0001335340
Ti        -0.0000797730        0.0001449773        0.0001507575
Ti        -0.0000852313       -0.0000485449       -0.0000737286
Ti        -0.0001899100        0.0000032915       -0.0000839732
Ti        -0.0000113639       -0.0000208028        0.0001841922
Ti         0.0000377289        0.0000875253        0.0000713376
Ti         0.0000275288       -0.0001885359       -0.0000884006
Ti        -0.0001323098       -0.0000207873        0.0001941092
Ti        -0.0000412090        0.0000134775       -0.0000893539
Ti         0.0001631604       -0.0001693316       -0.0001748786
Ti        -0.0001084885        0.0000968054        0.0000544238
Ti         0.0001110488       -0.0000962418        0.0001263202
Ti         0.0000434658       -0.0000789394       -0.0000685187
Ti        -0.0001431783       -0.0000126434       -0.0001379489
Ti        -0.0000293966        0.0000739465        0.0002102377
Ti         0.0001192899       -0.0001086171       -0.0001317319
Ti        -0.0000639143       -0.0001157680        0.0000707934
Ti        -0.0000726197        0.0001865954        0.0000905801
Ti        -0.0001221817        0.0000461745       -0.0002287887
Ti        -0.0001583821        0.0000373674       -0.0001891993
Ti         0.0000015502        0.0001156394        0.0001402490
Ti         0.0000307890       -0.0000316198        0.0001039265
Ti        -0.0000551286       -0.0001006619       -0.0001470664
Ti        -0.0000501460        0.0000974546        0.0001517167
Ti        -0.0000193082        0.0000059589       -0.0001709288
Ti         0.0001028083       -0.0001302158        0.0000980902
Ti         0.0000017390       -0.0001938258       -0.0000696487
Ti        -0.0000818659        0.0000784085       -0.0001788833
Ti        -0.0000691905        0.0000052831        0.0000906677
Ti        -0.0000057539       -0.0000345366       -0.0001036762
Ti         0.0000633090       -0.0001870540        0.0001413887
Ti         0.0000060533       -0.0002094396       -0.0000667253
Ti         0.0000125032        0.0000113102        0.0000686393
Ti        -0.0000775275        0.0000481868        0.0001942916
Ti        -0.0001039380       -0.0000661455       -0.0001211279
O        -0.0000330283       -0.0000214544        0.0000941069
O        -0.0000483885       -0.0000079853       -0.0000931691
O         0.0000830765       -0.0000778171       -0.0000880528
O        -0.0001451910       -0.0000800768        0.0000300201
O        -0.0000786867        0.0000809884        0.0001370012
O        -0.0000239399        0.0000444851       -0.0001976473
O        -0.0000779500       -0.0000417669       -0.0000197887
O         0.0001145487       -0.0000222896        0.0000446437
O        -0.0000237778       -0.0002041668        0.0000631280
O        -0.0000999958       -0.0000302677       -0.0001571480
O        -0.0000003420       -0.0000596432       -0.0000408754
O        -0.0001099510       -0.0000452177       -0.0000790355
O        -0.0000083546       -0.0000782159        0.0002611131
O         0.0000256327       -0.0000421674       -0.0000788696
O         0.0000766243       -0.0000265089        0.0001343603
O         0.0000677738        0.0000162370        0.0000080784
O         0.0000461078       -0.0000206419        0.0000506810
O        -0.0000186879       -0.0000539731        0.0000179589
O        -0.0001434637       -0.0000131302        0.0000543617
O        -0.0001196696       -0.0000385933       -0.0001207953
O        -0.0000631378       -0.0000348946       -0.0002223162
O        -0.0000155793       -0.0000094770        0.0001619714
O        -0.0000182688        0.0001233613       -0.0000073788
O        -0.0000265048        0.0000654211        0.0001862841
O        -0.0000526693       -0.0001285507       -0.0000332318
O        -0.0000413538       -0.0000710104       -0.0001599454
O        -0.0000649416       -0.0000625407       -0.0001395964
O         0.0000425564       -0.0000458682       -0.0000634896
O        -0.0000373074        0.0000424273        0.0002428378
O        -0.0000260020        0.0001671821       -0.0000917241
O         0.0000685881       -0.0000491073        0.0000761667
O         0.0000806666       -0.0000050320        0.0001054768
O        -0.0000338361       -0.0000832401        0.0001665976
O        -0.0000256433       -0.0000177769       -0.0001155519
O         0.0000020500        0.0000050413       -0.0000057935
O        -0.0002034517        0.0000925935        0.0000489443
O         0.0000629624        0.0000589889        0.0001840456
O        -0.0000305920        0.0000159215       -0.0001377862
O        -0.0000068946       -0.0000096044       -0.0000715844
O         0.0000523666        0.0000965969        0.0000434878
O         0.0000940547       -0.0000520618       -0.0001024651
O        -0.0000112991        0.0000031569        0.0001197865
O        -0.0000057328        0.0000083572       -0.0000565967
O         0.0000621464       -0.0000365044        0.0001131679
O        -0.0001375407       -0.0000522720        0.0000559670
O         0.0000114448        0.0000186683       -0.0000914703
O         0.0000923899       -0.0000453065       -0.0000443285
O        -0.0000510704        0.0000341113       -0.0000621769
O        -0.0000561959       -0.0000963233        0.0000093816
O         0.0000447875       -0.0001141691       -0.0000664967
O         0.0000566843        0.0000109503        0.0000440110
O        -0.0000537344        0.0000302373       -0.0001242929
O         0.0000154126        0.0000027160        0.0001948867
O        -0.0000442806        0.0000584446       -0.0001335621
O         0.0000191364       -0.0000222918        0.0000524695
O         0.0000613858        0.0000712637        0.0000565694
O         0.0000557697        0.0000244104       -0.0001569634
O        -0.0000283295        0.0000134866        0.0001412422
O         0.0000759617        0.0000687778        0.0000858305
O        -0.0000441835       -0.0000331411       -0.0000590460
O         0.0000245150       -0.0000551596       -0.0000368998
O         0.0000375582       -0.0001309286       -0.0000095179
O        -0.0000557121        0.0000590155        0.0000142716
O        -0.0000309047        0.0000096340       -0.0000696806
O         0.0000225710       -0.0000504689       -0.0001273929
O         0.0000184999        0.0000187792        0.0000471104
O        -0.0000556149       -0.0000588937       -0.0000086034
O        -0.0000366818        0.0000014164       -0.0001357763
O         0.0000511978        0.0001619538       -0.0000445147
O        -0.0000379533        0.0000910216        0.0000498238
O         0.0000280347       -0.0000378779        0.0000277904
O        -0.0000291601        0.0000195316       -0.0000519807
O         0.0000301342        0.0001323767        0.0001269747
O        -0.0000375658        0.0001410242       -0.0000700516
O         0.0000392968        0.0000372711        0.0000807072
O         0.0000889656       -0.0000281590       -0.0000308562
O        -0.0000615710        0.0000193346        0.0001504883
O         0.0000154113       -0.0000341491       -0.0001626446
O         0.0000352534       -0.0000101231       -0.0000423405
O        -0.0000569076       -0.0000414504       -0.0000881141
O        -0.0000286110       -0.0001329074        0.0000474560
O        -0.0000013965        0.0000003805       -0.0001604867
O        -0.0000687559        0.0000021123       -0.0000589716
O        -0.0000179164        0.0000475389       -0.0000521288
O         0.0000621534       -0.0000100572        0.0002788967
O        -0.0000141265        0.0000458828        0.0000018848
O         0.0000710225       -0.0000158148        0.0000426082
O         0.0000626979        0.0000555790        0.0001023408
O         0.0000632911        0.0001187758       -0.0000216398
O        -0.0000118813        0.0000157518        0.0002172824
O        -0.0000060253        0.0000028801       -0.0001271370
O         0.0000438793       -0.0001547781       -0.0000130657
O        -0.0000444326       -0.0000394648       -0.0000451624
O        -0.0001246924        0.0000285261       -0.0001242290
O         0.0000492939       -0.0000268598        0.0000493366
O         0.0001302424        0.0000257701        0.0000686173
O        -0.0000032005        0.0000058036        0.0001071314
O         0.0000437456       -0.0000729312       -0.0000143067
O         0.0000561234        0.0000025342       -0.0000637671
O        -0.0000761373        0.0000312711        0.0000661892
O         0.0000212738        0.0001075170        0.0001106535
O        -0.0000074478        0.0000324474       -0.0002225121
O        -0.0000594885        0.0000283706       -0.0001020457
O         0.0000695537       -0.0000071291       -0.0000221771
O         0.0000193680       -0.0001359130        0.0001036560
O         0.0000120680       -0.0000579898       -0.0000542477
O        -0.0000378478        0.0000352980        0.0000179384
O        -0.0001153075        0.0000179594       -0.0000451416
O         0.0000475632       -0.0000421844        0.0002031525
O         0.0000079646       -0.0000426246       -0.0000985428
O         0.0000508235        0.0000366307        0.0000660831
O         0.0000415427       -0.0000316916       -0.0000618397
O         0.0000128600       -0.0000219499        0.0000025310
O         0.0000062232        0.0000403597       -0.0000233639
O        -0.0001073372        0.0000262320        0.0000626269
O        -0.0000642542        0.0000170301       -0.0000959814
O        -0.0000000506       -0.0000211871       -0.0001644796
O         0.0000147474       -0.0000482183        0.0001958293
O        -0.0000110128        0.0000762139       -0.0000257698
O         0.0000607108        0.0000051861        0.0001533626
O        -0.0000070487       -0.0000997809        0.0000078335
O         0.0000417000       -0.0000244685       -0.0001007582
O        -0.0000491908        0.0000156397       -0.0001033317
O         0.0000261432        0.0000228489       -0.0000367800
O         0.0000212018        0.0000293658        0.0001777228
O        -0.0000117306        0.0001408913       -0.0001128684
O         0.0000474425        0.0000348124        0.0000460952
O         0.0000883834       -0.0000069546        0.0000509044
     192
 i =        8, E =     -5783.4159376600
Ti         0.0002570293        0.0000463088       -0.0001630860
Ti         0.0000566768        0.0000411194        0.0001156237
Ti         0.0000609354        0.0001743459        0.0003231998
Ti        -0.0000867337        0.0000487733       -0.0002375823
Ti         0.0001549263       -0.0000549228       -0.0001719015
Ti         0.0000964821       -0.0002338296        0.0002719857
Ti        -0.0000879018        0.0001918914        0.0001659554
Ti        -0.0000658438        0.0001467898       -0.0002378789
Ti        -0.0000626140        0.0000978825       -0.0002375390
Ti         0.0000589169        0.0000275613        0.0002151482
Ti         0.0001468879       -0.0000304319        0.0000445637
Ti         0.0000245882        0.0000412951       -0.0000714260
Ti         0.0001368190        0.0000619160       -0.0001148462
Ti        -0.0000608242       -0.0000711907        0.0000870350
Ti        -0.0001627483        0.0001643053       -0.0002838887
Ti         0.0000332484        0.0001477139        0.0001775441
Ti         0.0000765107        0.0000124507        0.0001530003
Ti         0.0002488458       -0.0001800576       -0.0002448683
Ti         0.0001024776        0.0001941341        0.0001961892
Ti        -0.0000383574        0.0000408538       -0.0002705063
Ti         0.0002140783       -0.0002566150       -0.0001324331
Ti         0.0000062421       -0.0000118707        0.0001645259
Ti        -0.0001505534        0.0000985888        0.0002280897
Ti        -0.0001213878        0.0000912260       -0.0002135346
Ti        -0.0000362874       -0.0000335738       -0.0001770001
Ti         0.0000546997        0.0000529473        0.0003186964
Ti        -0.0000181015        0.0000405708        0.0000514887
Ti         0.0000055372        0.0000277282       -0.0000298571
Ti         0.0001563336       -0.0001133325       -0.0000751424
Ti        -0.0001365641       -0.0001254968        0.0001335340
Ti        -0.0000797730        0.0001449773        0.0001507575
Ti        -0.0000852313       -0.0000485449       -0.0000737286
Ti        -0.0001899100        0.0000032915       -0.0000839732
Ti        -0.0000113639       -0.0000208028        0.0001841922
Ti         0.0000377289        0.0000875253        0.0000713376
Ti         0.0000275288       -0.0001885359       -0.0000884006
Ti        -0.0001323098       -0.0000207873        0.0001941092
Ti        -0.0000412090        0.0000134775       -0.0000893539
Ti         0.0001631604       -0.0001693316       -0.0001748786
Ti        -0.0001084885        0.0000968054        0.0000544238
Ti         0.0001110488       -0.0000962418        0.0001263202
Ti         0.0000434658       -0.0000789394       -0.0000685187
Ti        -0.0001431783       -0.0000126434       -0.0001379489
Ti        -0.0000293966        0.0000739465        0.0002102377
Ti         0.0001192899       -0.0001086171       -0.0001317319
Ti        -0.0000639143       -0.0001157680        0.0000707934
Ti        -0.0000726197        0.0001865954        0.0000905801
Ti        -0.0001221817        0.0000461745       -0.0002287887
Ti        -0.0001583821        0.0000373674       -0.0001891993
Ti         0.0000015502        0.0001156394        0.0001402490
Ti         0.0000307890       -0.0000316198        0.0001039265
Ti        -0.0000551286       -0.0001006619       -0.0001470664
Ti        -0.0000501460        0.0000974546        0.0001517167
Ti        -0.0000193082        0.0000059589       -0.0001709288
Ti         0.0001028083       -0.0001302158        0.0000980902
Ti         0.0000017390       -0.0001938258       -0.0000696487
Ti        -0.0000818659        0.0000784085       -0.0001788833
Ti        -0.0000691905        0.0000052831        0.0000906677
Ti        -0.0000057539       -0.0000345366       -0.0001036762
Ti         0.0000633090       -0.0001870540        0.0001413887
Ti         0.0000060533       -0.0002094396       -0.0000667253
Ti         0.0000125032        0.0000113102        0.0000686393
Ti        -0.0000775275        0.0000481868        0.0001942916
Ti        -0.0001039380       -0.0000661455       -0.0001211279
O        -0.0000330283       -0.0000214544        0.0000941069
O        -0.0000483885       -0.0000079853       -0.0000931691
O         0.0000830765       -0.0000778171       -0.0000880528
O        -0.0001451910       -0.0000800768        0.0000300201
O        -0.0000786867        0.0000809884        0.0001370012
O        -0.0000239399        0.0000444851       -0.0001976473
O        -0.0000779500       -0.0000417669       -0.0000197887
O         0.0001145487       -0.0000222896        0.0000446437
O        -0.0000237778       -0.0002041668        0.0000631280
O        -0.0000999958       -0.0000302677       -0.0001571480
O        -0.0000003420       -0.0000596432       -0.0000408754
O        -0.0001099510       -0.0000452177       -0.0000790355
O        -0.0000083546       -0.0000782159        0.0002611131
O         0.0000256327       -0.0000421674       -0.0000788696
O         0.0000766243       -0.0000265089        0.0001343603
O         0.0000677738        0.0000162370        0.0000080784
O         0.0000461078       -0.0000206419        0.0000506810
O        -0.0000186879       -0.0000539731        0.0000179589
O        -0.0001434637       -0.0000131302        0.0000543617
O        -0.0001196696       -0.0000385933       -0.0001207953
O        -0.0000631378       -0.0000348946       -0.0002223162
O        -0.0000155793       -0.0000094770        0.0001619714
O        -0.0000182688        0.0001233613       -0.0000073788
O        -0.0000265048        0.0000654211        0.0001862841
O        -0.0000526693       -0.0001285507       -0.0000332318
O        -0.0000413538       -0.0000710104       -0.0001599454
O        -0.0000649416       -0.0000625407       -0.0001395964
O         0.0000425564       -0.0000458682       -0.0000634896
O        -0.0000373074        0.0000424273        0.0002428378
O        -0.0000260020        0.0001671821       -0.0000917241
O         0.0000685881       -0.0000491073        0.0000761667
O         0.0000806666       -0.0000050320        0.0001054768
O        -0.0000338361       -0.0000832401        0.0001665976
O        -0.0000256433       -0.0000177769       -0.0001155519
O         0.0000020500        0.0000050413       -0.0000057935
O        -0.0002034517        0.0000925935        0.0000489443
O         0.0000629624        0.0000589889        0.0001840456
O        -0.0000305920        0.0000159215       -0.0001377862
O        -0.0000068946       -0.0000096044       -0.0000715844
O         0.0000523666        0.0000965969        0.0000434878
O         0.0000940547       -0.0000520618       -0.0001024651
O        -0.0000112991        0.0000031569        0.0001197865
O        -0.0000057328        0.0000083572       -0.0000565967
O         0.0000621464       -0.0000365044        0.0001131679
O        -0.0001375407       -0.0000522720        0.0000559670
O         0.0000114448        0.0000186683       -0.0000914703
O         0.0000923899       -0.0000453065       -0.0000443285
O        -0.0000510704        0.0000341113       -0.0000621769
O        -0.0000561959       -0.0000963233        0.0000093816
O         0.0000447875       -0.0001141691       -0.0000664967
O         0.0000566843        0.0000109503        0.0000440110
O        -0.0000537344        0.0000302373       -0.0001242929
O         0.0000154126        0.0000027160        0.0001948867
O        -0.0000442806        0.0000584446       -0.0001335621
O         0.0000191364       -0.0000222918        0.0000524695
O         0.0000613858        0.0000712637        0.0000565694
O         0.0000557697        0.0000244104       -0.0001569634
O        -0.0000283295        0.0000134866        0.0001412422
O         0.0000759617        0.0000687778        0.0000858305
O        -0.0000441835       -0.0000331411       -0.0000590460
O         0.0000245150       -0.0000551596       -0.0000368998
O         0.0000375582       -0.0001309286       -0.0000095179
O        -0.0000557121        0.0000590155        0.0000142716
O        -0.0000309047        0.0000096340       -0.0000696806
O         0.0000225710       -0.0000504689       -0.0001273929
O         0.0000184999        0.0000187792        0.0000471104
O        -0.0000556149       -0.0000588937       -0.0000086034
O        -0.0000366818        0.0000014164       -0.0001357763
O         0.0000511978        0.0001619538       -0.0000445147
O        -0.0000379533        0.0000910216        0.0000498238
O         0.0000280347       -0.0000378779        0.0000277904
O        -0.0000291601        0.0000195316       -0.0000519807
O         0.0000301342        0.0001323767        0.0001269747
O        -0.0000375658        0.0001410242       -0.0000700516
O         0.0000392968        0.0000372711        0.0000807072
O         0.0000889656       -0.0000281590       -0.0000308562
O        -0.0000615710        0.0000193346        0.0001504883
O         0.0000154113       -0.0000341491       -0.0001626446
O         0.0000352534       -0.0000101231       -0.0000423405
O        -0.0000569076       -0.0000414504       -0.0000881141
O        -0.0000286110       -0.0001329074        0.0000474560
O        -0.0000013965        0.0000003805       -0.0001604867
O        -0.0000687559        0.0000021123       -0.0000589716
O        -0.0000179164        0.0000475389       -0.0000521288
O         0.0000621534       -0.0000100572        0.0002788967
O        -0.0000141265        0.0000458828        0.0000018848
O         0.0000710225       -0.0000158148        0.0000426082
O         0.0000626979        0.0000555790        0.0001023408
O         0.0000632911        0.0001187758       -0.0000216398
O        -0.0000118813        0.0000157518        0.0002172824
O        -0.0000060253        0.0000028801       -0.0001271370
O         0.0000438793       -0.0001547781       -0.0000130657
O        -0.0000444326       -0.0000394648       -0.0000451624
O        -0.0001246924        0.0000285261       -0.0001242290
O         0.0000492939       -0.0000268598        0.0000493366
O         0.0001302424        0.0000257701        0.0000686173
O        -0.0000032005        0.0000058036        0.0001071314
O         0.0000437456       -0.0000729312       -0.0000143067
O         0.0000561234        0.0000025342       -0.0000637671
O        -0.0000761373        0.0000312711        0.0000661892
O         0.0000212738        0.0001075170        0.0001106535
O        -0.0000074478        0.0000324474       -0.0002225121
O        -0.0000594885        0.0000283706       -0.0001020457
O         0.0000695537       -0.0000071291       -0.0000221771
O         0.0000193680       -0.0001359130        0.0001036560
O         0.0000120680       -0.0000579898       -0.0000542477
O        -0.0000378478        0.0000352980        0.0000179384
O        -0.0001153075        0.0000179594       -0.0000451416
O         0.0000475632       -0.0000421844        0.0002031525
O         0.0000079646       -0.0000426246       -0.0000985428
O         0.0000508235        0.0000366307        0.0000660831
O         0.0000415427       -0.0000316916       -0.0000618397
O         0.0000128600       -0.0000219499        0.0000025310
O         0.0000062232        0.0000403597       -0.0000233639
O        -0.0001073372        0.0000262320        0.0000626269
O        -0.0000642542        0.0000170301       -0.0000959814
O        -0.0000000506       -0.0000211871       -0.0001644796
O         0.0000147474       -0.0000482183        0.0001958293
O        -0.0000110128        0.0000762139       -0.0000257698
O         0.0000607108        0.0000051861        0.0001533626
O        -0.0000070487       -0.0000997809        0.0000078335
O         0.0000417000       -0.0000244685       -0.0001007582
O        -0.0000491908        0.0000156397       -0.0001033317
O         0.0000261432        0.0000228489       -0.0000367800
O         0.0000212018        0.0000293658        0.0001777228
O        -0.0000117306        0.0001408913       -0.0001128684
O         0.0000474425        0.0000348124        0.0000460952
O         0.0000883834       -0.0000069546        0.0000509044
