     192
 i =        6, E =     -5783.6990177192
Ti         0.0006440653        0.0014401475       -0.0004934189
Ti         1.8887657349        1.8884217034        4.8082360409
Ti         0.0010175138        1.8889516747        2.4028919991
Ti         1.8889213921        0.0014403871        7.2118924809
Ti         0.0012611426        3.7762921581        0.0022036281
Ti         1.8888885886       13.2381168195        4.8062002780
Ti        11.3497564196        1.8883275604        2.4043748597
Ti         5.6695391309        0.0008660348        7.2161756552
Ti         1.8885761454        3.7765575600        7.2091497012
Ti         0.0008834556       13.2371900728        2.4045213205
Ti         5.6697114102        1.8891145790        4.8042504544
Ti        11.3499660034        0.0003494934       -0.0021445257
Ti         3.7769057966        0.0008892927       -0.0037449903
Ti        13.2376741899        1.8890787753        4.8097741470
Ti        13.2373518971        0.0007745212        7.2106122545
Ti         3.7762660184        1.8882286324        2.4059791928
Ti         1.8887614499        5.6697745251        4.8123665112
Ti         0.0007807464       11.3491539007        0.0011289680
Ti         0.0010406641        5.6695080189        2.3986221790
Ti         1.8886406247       11.3495508689        7.2107479083
Ti         0.0010491763        7.5695119491        0.0048540697
Ti         1.8890079235        9.4619509931        4.8093120311
Ti         7.5694583817        1.8893317449        2.4083114373
Ti         9.4622592440        0.0011765056        7.2136817989
Ti         1.8888650239        7.5693903929        7.2068067191
Ti         0.0014811945        9.4629759751        2.4011273441
Ti         9.4624703772        1.8886369991        4.8069412283
Ti         7.5695180068        0.0016328067       -0.0065129563
Ti         3.7766870416        3.7772568637       -0.0010097216
Ti        13.2376652945       13.2374616045        4.8080707654
Ti        11.3499222951        5.6701216744        2.4002654346
Ti         5.6698748037       11.3499982550        7.2145262028
Ti        13.2377678770        3.7769846468        7.2073824252
Ti         3.7764381041       13.2376298475        2.4077306282
Ti         5.6699850627        5.6695492663        4.8081765956
Ti        11.3499520500       11.3502667685       -0.0008032420
Ti        11.3503038952       13.2381743680        2.4057694568
Ti         5.6697378663        3.7768673389        7.2133932876
Ti         3.7764174187       11.3500324059       -0.0020077159
Ti        13.2374866681        5.6691745236        4.8140900114
Ti         5.6699089442       13.2372254174        4.8024844105
Ti        11.3496007103        3.7768809414        0.0007199395
Ti        13.2375420192       11.3500181789        7.2093114926
Ti         3.7768544850        5.6705596210        2.4014517791
Ti         3.7767680824        7.5683395272        0.0020186272
Ti        13.2372333579        9.4624682320        4.8113049874
Ti         7.5688742848        5.6696555509        2.4043270320
Ti         9.4620524299       11.3497224860        7.2121790865
Ti        13.2374204701        7.5691869815        7.2051496798
Ti         3.7762926109        9.4621210904        2.4045706012
Ti         9.4622414213        5.6700183943        4.8110806523
Ti         7.5696851177       11.3493454632       -0.0048172946
Ti        11.3498064315        9.4619936916        2.4029284195
Ti         5.6696180903        7.5690332295        7.2107578047
Ti         5.6700483534        9.4624383026        4.8052629047
Ti        11.3499822394        7.5688541921        0.0032672523
Ti         9.4621343681        3.7763683176        7.2105393816
Ti         7.5689549944       13.2370136826        2.4102374243
Ti         7.5692526473        3.7762116475       -0.0034158443
Ti         9.4621823280       13.2378654691        4.8054138662
Ti         7.5690737917        7.5693401144       -0.0006967123
Ti         9.4622304436        9.4617913749        4.8083930369
Ti         7.5689745599        9.4625633254        2.4072625713
Ti         9.4623440633        7.5695570360        7.2078505940
O         0.0013480698        0.0014571674        1.9939906590
O         1.8847909038        1.8878299935        6.8019083293
O         0.0016204422        1.8844663215        4.3978459813
O         1.8875319484        0.0014273110        9.2066202165
O         1.8834070734        0.0015941327        5.2164094789
O         0.0000502345        1.8878029577        0.4097553567
O         1.8876735148        1.8834510755        2.8126000551
O         0.0018073377       -0.0001951026        7.6216063915
O         0.0012920356        3.7759684639        1.9914597932
O         1.8847598674       13.2367974755        6.8021981591
O        11.3510575203        1.8847649878        4.3976781921
O         5.6723208996        0.0015281083        9.2072963635
O         1.8837740160        3.7759544535        5.2180787146
O         0.0003341878       13.2370415187        0.4089148028
O         5.6721434297        1.8834028515        2.8116295923
O        11.3510122959        0.0002706084        7.6216214431
O         3.7760325585        0.0002541335        7.6238910887
O        13.2368163243        1.8832480533        2.8123912315
O        13.2368587162        0.0017813766        9.2063328380
O         3.7760785612        1.8850176323        4.3956036461
O         1.8849645878        5.6722140022        6.8028175125
O         0.0012210321       11.3511324030        1.9934946639
O         0.0002066281        5.6722864485        0.4084530531
O         1.8834779679       11.3511269653        5.2159920933
O         0.0011698883        7.5668214118        1.9949931882
O         1.8849815948        9.4627694516        6.7996516656
O         7.5668368245        1.8845927118        4.3986373024
O         9.4627355341        0.0016470400        9.2044674505
O         1.8835971111        7.5667946948        5.2155481879
O         0.0002438021        9.4625229776        0.4117084554
O         9.4627923806        1.8836312409        2.8147179846
O         7.5667568162        0.0000796114        7.6206376900
O         3.7698499734        0.0014444397        1.9937945328
O        13.2385206681        1.8876151731        6.8019601223
O         0.0016327519        5.6566814839        4.3974654637
O         1.8875581952       11.3555071006        9.2066080047
O        13.2371118378        0.0017489324        5.2162390859
O         3.7684915717        1.8880705585        0.4089881828
O         1.8879075095        5.6547855150        2.8128887196
O         0.0017975931       11.3541526364        7.6214209525
O        11.3538497403        1.8877983287        0.4091258007
O         5.6552756062        0.0017196244        5.2161440868
O         5.6566214412        1.8877895425        6.8019155488
O        11.3549279910        0.0017517617        1.9938694951
O         1.8878445577        3.7698732693        9.2066672407
O         0.0017141835       13.2383175343        4.3978455469
O         0.0016926639        3.7686311962        7.6213148921
O         1.8875683541       13.2369129212        2.8128304759
O         3.7701455589        3.7758330275        1.9924176622
O        13.2386450232       13.2368323097        6.8016382026
O        11.3507531400        5.6564501348        4.3975106951
O         5.6720602053       11.3550870397        9.2076297807
O        13.2369847667        3.7758622172        5.2187662368
O         3.7682899790       13.2370157592        0.4091137200
O         5.6721489180        5.6557125960        2.8119340640
O        11.3509094370       11.3537775321        7.6212704140
O        11.3536716201       13.2367822281        0.4096703516
O         5.6556380276        3.7761288835        5.2185365396
O         3.7760535252       11.3536210206        7.6236061880
O        13.2369915487        5.6549986458        2.8128191156
O         5.6562948228       13.2369117951        6.8017517442
O        11.3547778280        3.7758311759        1.9922091933
O        13.2367972112       11.3553478539        9.2067364478
O         3.7761017542        5.6568091316        4.3957555910
O         5.6571515205        5.6722381020        6.8027082937
O        11.3549926337       11.3508892188        1.9944187105
O        13.2367554362        3.7698692241        9.2070184107
O         3.7761070715       13.2379710135        4.3958159965
O        11.3536548583        5.6721233782        0.4089145460
O         5.6553032501       11.3507422368        5.2166019358
O         3.7759851364        3.7688524470        7.6230980810
O        13.2370195692       13.2370185328        2.8130035727
O        13.2371488211       11.3509628334        5.2166152648
O         3.7689963477        5.6719206135        0.4087576907
O         5.6721359755       13.2371978000        2.8120256109
O        11.3510729505        3.7684640997        7.6212330570
O         3.7700377973       11.3508476837        1.9940161528
O        13.2383106024        5.6723998191        6.8025373975
O        11.3507969376       13.2380842279        4.3977448991
O         5.6720583239        3.7701298786        9.2076474791
O         3.7701260743        7.5672171600        1.9946737335
O        13.2384734695        9.4627480653        6.7997316105
O         7.5670183798        5.6571406175        4.3985557869
O         9.4628966808       11.3552247366        9.2045637922
O        13.2372964431        7.5668430262        5.2152497265
O         3.7690048282        9.4626765816        0.4106032968
O         9.4625302846        5.6554138710        2.8145278215
O         7.5667897585       11.3539121818        7.6207138529
O        11.3536380097        9.4629138881        0.4112353589
O         5.6559881208        7.5669310491        5.2152257052
O         5.6568770797        9.4625769622        6.8000181251
O        11.3547749489        7.5668783536        1.9947140405
O         9.4626658652        3.7704508371        9.2046864639
O         7.5669540191       13.2383321799        4.3984901370
O         7.5669538873        3.7692413478        7.6203095034
O         9.4628072500       13.2367981613        2.8148568232
O         7.5836024665        0.0014433453        1.9941658397
O         9.4700201264        1.8876842365        6.8019725912
O         0.0014224125        9.4699852372        4.3982875258
O         1.8877907829        7.5836035223        9.2065024200
O         9.4687946391        0.0016305806        5.2162315786
O         7.5819724586        1.8878361995        0.4099818498
O         1.8877604806        9.4684870894        2.8129189529
O         0.0016772172        7.5823977520        7.6214794930
O         7.5829439846        3.7762572548        1.9917925739
O         9.4701448363       13.2368571230        6.8022661835
O        11.3508002736        9.4701489283        4.3977796530
O         5.6721536874        7.5832092853        9.2073170637
O         9.4684579492        3.7761049079        5.2179489002
O         7.5819794929       13.2371369792        0.4092485365
O         5.6718824435        9.4681153373        2.8117110309
O        11.3508751223        7.5824264801        7.6216080239
O         3.7761733098        7.5821547744        7.6234719748
O        13.2370614401        9.4683726199        2.8125138207
O        13.2369456375        7.5838373116        9.2064754808
O         3.7762082111        9.4697245121        4.3961631846
O         9.4696047652        5.6720895566        6.8031737515
O         7.5836294315       11.3508007677        1.9934890673
O         7.5816853018        5.6721821224        0.4083499214
O         9.4689615830       11.3509364375        5.2158712313
O         7.5829472307        7.5668472996        1.9950805325
O         9.4696285177        9.4628813321        6.8000614594
O         7.5670052999        9.4693912644        4.3989030536
O         9.4624925623        7.5832523658        9.2047215025
O         9.4684457749        7.5667560851        5.2154473322
O         7.5816793133        9.4625265948        0.4116504840
O         9.4627378718        9.4683673013        2.8145126716
O         7.5669118231        7.5815851089        7.6204733490
     192
 i =        7, E =     -5783.6990694667
Ti         0.0006876620        0.0016293602       -0.0008147302
Ti         1.8885520872        1.8882625260        4.8085009489
Ti         0.0011812843        1.8890406841        2.4032844422
Ti         1.8887457313        0.0015353681        7.2114890655
Ti         0.0014244448        3.7759979561        0.0020799819
Ti         1.8886380098       13.2382142541        4.8065708053
Ti        11.3499065785        1.8879399858        2.4046656638
Ti         5.6694802258        0.0007326705        7.2161428868
Ti         1.8884213084        3.7762446527        7.2085556228
Ti         0.0009870547       13.2368627834        2.4048182059
Ti         5.6696419130        1.8890656067        4.8041775732
Ti        11.3500800720        0.0002328849       -0.0023709478
Ti         3.7770595983        0.0006159884       -0.0041859880
Ti        13.2375149613        1.8890892328        4.8099869062
Ti        13.2371240247        0.0007916028        7.2103499939
Ti         3.7761016294        1.8880416316        2.4065073490
Ti         1.8885675790        5.6698388213        4.8129184219
Ti         0.0008724544       11.3490903217        0.0007836924
Ti         0.0009798479        5.6694406691        2.3986349179
Ti         1.8883180170       11.3497011876        7.2104636890
Ti         0.0010215303        7.5696596576        0.0048792824
Ti         1.8888943533        9.4617689857        4.8098461802
Ti         7.5694293866        1.8893975175        2.4089295337
Ti         9.4623518335        0.0012934551        7.2136674588
Ti         1.8887497339        7.5694151454        7.2062239141
Ti         0.0016321449        9.4630986110        2.4012465246
Ti         9.4625221158        1.8883554037        4.8069625597
Ti         7.5693996261        0.0018906914       -0.0070267363
Ti         3.7765661439        3.7772996604       -0.0012465399
Ti        13.2376819291       13.2371893663        4.8083718618
Ti        11.3501286777        5.6702872667        2.4001273463
Ti         5.6698021234       11.3502112039        7.2145774860
Ti        13.2377264456        3.7769210610        7.2068950555
Ti         3.7764517927       13.2377096947        2.4081089582
Ti         5.6699403722        5.6694277277        4.8084182585
Ti        11.3499775497       11.3506604612       -0.0010760577
Ti        11.3504848715       13.2382467887        2.4059164095
Ti         5.6697015056        3.7767632399        7.2131424374
Ti         3.7763883678       11.3503226139       -0.0024963357
Ti        13.2374006323        5.6691483030        4.8145745873
Ti         5.6698335754       13.2371009821        4.8024615192
Ti        11.3497082176        3.7769042539        0.0006408140
Ti        13.2375040622       11.3503027397        7.2091417545
Ti         3.7768548544        5.6707027942        2.4015937021
Ti         3.7767328048        7.5682106688        0.0019377801
Ti        13.2372137575        9.4625586191        4.8117690823
Ti         7.5688364142        5.6694360621        2.4045699251
Ti         9.4621446260       11.3497493452        7.2122589623
Ti        13.2374087291        7.5690398196        7.2047171306
Ti         3.7762434482        9.4619623523        2.4047965310
Ti         9.4622322699        5.6700887210        4.8113771991
Ti         7.5696591093       11.3492493466       -0.0053974611
Ti        11.3497798407        9.4619160197        2.4029333771
Ti         5.6694702690        7.5690095097        7.2105376361
Ti         5.6698710245        9.4626106973        4.8054282054
Ti        11.3501671525        7.5685826075        0.0033834746
Ti         9.4620842235        3.7761789568        7.2103177297
Ti         7.5687278480       13.2368348151        2.4107468224
Ti         7.5691740899        3.7760262383       -0.0037652670
Ti         9.4622708339       13.2378968050        4.8055121972
Ti         7.5690039596        7.5694401074       -0.0009453911
Ti         9.4622549229        9.4617596077        4.8086385623
Ti         7.5689398936        9.4626946310        2.4075538959
Ti         9.4624619893        7.5695124474        7.2076246657
O         0.0014728789        0.0012758529        1.9945687100
O         1.8853388661        1.8873914433        6.8016699427
O         0.0014114828        1.8852066862        4.3978576693
O         1.8872805310        0.0019752053        9.2077048001
O         1.8839149090        0.0016388704        5.2165510822
O         0.0000915415        1.8875814583        0.4088228437
O         1.8875725318        1.8834783681        2.8120137590
O         0.0017786644        0.0001359433        7.6216012683
O         0.0015634343        3.7756498427        1.9923349241
O         1.8854811172       13.2368327719        6.8019898067
O        11.3511033011        1.8852607326        4.3976951883
O         5.6721341008        0.0019867351        9.2082524490
O         1.8838314213        3.7758216602        5.2177849561
O         0.0000064284       13.2372830828        0.4080456140
O         5.6721168611        1.8836394527        2.8108387564
O        11.3513119676        0.0000499390        7.6215254990
O         3.7758371155        0.0002977973        7.6236911480
O        13.2370136909        1.8835686280        2.8119811893
O        13.2368649410        0.0018118955        9.2071045023
O         3.7757121837        1.8853569373        4.3957359295
O         1.8855124108        5.6720214064        6.8028691255
O         0.0014971232       11.3510371317        1.9940238857
O         0.0002502823        5.6723837955        0.4072467397
O         1.8838018169       11.3513146918        5.2158133263
O         0.0016635596        7.5665610842        1.9959640433
O         1.8855408429        9.4630616672        6.7997689186
O         7.5666943647        1.8853793537        4.3991427367
O         9.4627392839        0.0019736267        9.2055360963
O         1.8839408224        7.5667836417        5.2152181496
O         0.0002796538        9.4629948294        0.4108691281
O         9.4630992462        1.8838151490        2.8139246325
O         7.5668804010        0.0001934802        7.6204601321
O         3.7704957159        0.0014567458        1.9942944589
O        13.2385429704        1.8872798692        6.8019464950
O         0.0015581679        5.6570383251        4.3975183664
O         1.8873309226       11.3548601453        9.2073171666
O        13.2367812033        0.0016719477        5.2160436612
O         3.7686610444        1.8877355811        0.4080255180
O         1.8876610356        5.6542444885        2.8121412868
O         0.0017922792       11.3530924744        7.6215488281
O        11.3531270715        1.8877431457        0.4083237315
O         5.6546950530        0.0017486637        5.2161898020
O         5.6570680896        1.8874181816        6.8017425111
O        11.3546416242        0.0014915735        1.9943004959
O         1.8875150089        3.7706812806        9.2071805773
O         0.0015593366       13.2382745166        4.3978921858
O         0.0017456643        3.7690300569        7.6214509607
O         1.8875322431       13.2366871286        2.8123602776
O         3.7708777150        3.7754050018        1.9932716782
O        13.2383523834       13.2369334772        6.8016373409
O        11.3508534176        5.6569637895        4.3977134302
O         5.6718469374       11.3549158315        9.2086456922
O        13.2368626080        3.7757445797        5.2184884068
O         3.7685080190       13.2370831543        0.4083349025
O         5.6722100205        5.6553337819        2.8111778200
O        11.3512849046       11.3531828690        7.6215361926
O        11.3532660126       13.2370455958        0.4091833422
O         5.6553713765        3.7758486341        5.2182663295
O         3.7757565163       11.3529850670        7.6235712509
O        13.2370247279        5.6542211543        2.8122019754
O         5.6567518243       13.2368685747        6.8014674843
O        11.3544572726        3.7753580498        1.9930418495
O        13.2367320973       11.3550213998        9.2073397287
O         3.7757116213        5.6574944694        4.3962038226
O         5.6576186199        5.6721679394        6.8028323541
O        11.3548375688       11.3508787805        1.9950836698
O        13.2367639894        3.7706672733        9.2076225021
O         3.7756078059       13.2381390301        4.3961190864
O        11.3531239831        5.6721289028        0.4079161255
O         5.6550929958       11.3510311967        5.2166153214
O         3.7758379620        3.7693743699        7.6232047773
O        13.2371316491       13.2367711447        2.8124497872
O        13.2368279235       11.3511158709        5.2163582866
O         3.7692677699        5.6720030365        0.4078418460
O         5.6721874373       13.2365765214        2.8112133535
O        11.3512971479        3.7689237503        7.6213194555
O         3.7706260712       11.3508701336        1.9945624461
O        13.2382878922        5.6722426111        6.8026450681
O        11.3510203051       13.2383405205        4.3981615088
O         5.6717998689        3.7710228390        9.2083566866
O         3.7707608498        7.5669859670        1.9954630488
O        13.2383297212        9.4629396681        6.7999140070
O         7.5669097671        5.6576196098        4.3988997079
O         9.4629128288       11.3549051449        9.2053652111
O        13.2367056894        7.5669933485        5.2148476805
O         3.7689924029        9.4632690792        0.4095773220
O         9.4629424471        5.6549453448        2.8137368056
O         7.5668679300       11.3531672020        7.6204964470
O        11.3531025634        9.4633401633        0.4102571994
O         5.6557177866        7.5669977863        5.2149291642
O         5.6575207584        9.4628395005        6.8000865018
O        11.3545579289        7.5667581553        1.9956482360
O         9.4628421378        3.7710637300        9.2054695256
O         7.5668830764       13.2381086160        4.3989354947
O         7.5670153658        3.7693359530        7.6201314300
O         9.4630310748       13.2366242600        2.8139402208
O         7.5840889980        0.0013275292        1.9948527902
O         9.4696842202        1.8874408017        6.8018475509
O         0.0013964409        9.4699362422        4.3985277483
O         1.8874194934        7.5839947178        9.2071800454
O         9.4682298656        0.0015647257        5.2163769979
O         7.5815024148        1.8877349642        0.4092813155
O         1.8876499453        9.4678068278        2.8124733329
O         0.0017738464        7.5818515323        7.6217852677
O         7.5831443886        3.7757810590        1.9925644042
O         9.4698364216       13.2368393257        6.8020085749
O        11.3510362379        9.4696247716        4.3979779775
O         5.6720137208        7.5833080863        9.2080620699
O         9.4677456872        3.7758340842        5.2177174104
O         7.5814348304       13.2372504852        0.4084420364
O         5.6719693977        9.4674635782        2.8111278083
O        11.3511928302        7.5818943281        7.6217070628
O         3.7759430689        7.5813525728        7.6234090916
O        13.2370101433        9.4678283829        2.8120459728
O        13.2368443103        7.5843402892        9.2069692249
O         3.7757167032        9.4694067176        4.3963249840
O         9.4694782968        5.6719076221        6.8031344201
O         7.5838773390       11.3509151333        1.9942155394
O         7.5809320209        5.6723406147        0.4073323680
O         9.4681192802       11.3512180937        5.2158864734
O         7.5830697543        7.5665860946        1.9959787540
O         9.4692920930        9.4629848371        6.8000195327
O         7.5668203750        9.4692542848        4.3992978558
O         9.4626833240        7.5837369517        9.2056884969
O         9.4678513868        7.5667944042        5.2153539506
O         7.5810508845        9.4629012513        0.4106950012
O         9.4630204072        9.4674910158        2.8137532107
O         7.5669716888        7.5810531975        7.6203154242
     192
 i =        8, E =     -5783.6990965168
Ti         0.0006876620        0.0016293602       -0.0008147302
Ti         1.8885520872        1.8882625260        4.8085009489
Ti         0.0011812843        1.8890406841        2.4032844422
Ti         1.8887457313        0.0015353681        7.2114890655
Ti         0.0014244448        3.7759979561        0.0020799819
Ti         1.8886380098       13.2382142541        4.8065708053
Ti        11.3499065785        1.8879399858        2.4046656638
Ti         5.6694802258        0.0007326705        7.2161428868
Ti         1.8884213084        3.7762446527        7.2085556228
Ti         0.0009870547       13.2368627834        2.4048182059
Ti         5.6696419130        1.8890656067        4.8041775732
Ti        11.3500800720        0.0002328849       -0.0023709478
Ti         3.7770595983        0.0006159884       -0.0041859880
Ti        13.2375149613        1.8890892328        4.8099869062
Ti        13.2371240247        0.0007916028        7.2103499939
Ti         3.7761016294        1.8880416316        2.4065073490
Ti         1.8885675790        5.6698388213        4.8129184219
Ti         0.0008724544       11.3490903217        0.0007836924
Ti         0.0009798479        5.6694406691        2.3986349179
Ti         1.8883180170       11.3497011876        7.2104636890
Ti         0.0010215303        7.5696596576        0.0048792824
Ti         1.8888943533        9.4617689857        4.8098461802
Ti         7.5694293866        1.8893975175        2.4089295337
Ti         9.4623518335        0.0012934551        7.2136674588
Ti         1.8887497339        7.5694151454        7.2062239141
Ti         0.0016321449        9.4630986110        2.4012465246
Ti         9.4625221158        1.8883554037        4.8069625597
Ti         7.5693996261        0.0018906914       -0.0070267363
Ti         3.7765661439        3.7772996604       -0.0012465399
Ti        13.2376819291       13.2371893663        4.8083718618
Ti        11.3501286777        5.6702872667        2.4001273463
Ti         5.6698021234       11.3502112039        7.2145774860
Ti        13.2377264456        3.7769210610        7.2068950555
Ti         3.7764517927       13.2377096947        2.4081089582
Ti         5.6699403722        5.6694277277        4.8084182585
Ti        11.3499775497       11.3506604612       -0.0010760577
Ti        11.3504848715       13.2382467887        2.4059164095
Ti         5.6697015056        3.7767632399        7.2131424374
Ti         3.7763883678       11.3503226139       -0.0024963357
Ti        13.2374006323        5.6691483030        4.8145745873
Ti         5.6698335754       13.2371009821        4.8024615192
Ti        11.3497082176        3.7769042539        0.0006408140
Ti        13.2375040622       11.3503027397        7.2091417545
Ti         3.7768548544        5.6707027942        2.4015937021
Ti         3.7767328048        7.5682106688        0.0019377801
Ti        13.2372137575        9.4625586191        4.8117690823
Ti         7.5688364142        5.6694360621        2.4045699251
Ti         9.4621446260       11.3497493452        7.2122589623
Ti        13.2374087291        7.5690398196        7.2047171306
Ti         3.7762434482        9.4619623523        2.4047965310
Ti         9.4622322699        5.6700887210        4.8113771991
Ti         7.5696591093       11.3492493466       -0.0053974611
Ti        11.3497798407        9.4619160197        2.4029333771
Ti         5.6694702690        7.5690095097        7.2105376361
Ti         5.6698710245        9.4626106973        4.8054282054
Ti        11.3501671525        7.5685826075        0.0033834746
Ti         9.4620842235        3.7761789568        7.2103177297
Ti         7.5687278480       13.2368348151        2.4107468224
Ti         7.5691740899        3.7760262383       -0.0037652670
Ti         9.4622708339       13.2378968050        4.8055121972
Ti         7.5690039596        7.5694401074       -0.0009453911
Ti         9.4622549229        9.4617596077        4.8086385623
Ti         7.5689398936        9.4626946310        2.4075538959
Ti         9.4624619893        7.5695124474        7.2076246657
O         0.0014728789        0.0012758529        1.9945687100
O         1.8853388661        1.8873914433        6.8016699427
O         0.0014114828        1.8852066862        4.3978576693
O         1.8872805310        0.0019752053        9.2077048001
O         1.8839149090        0.0016388704        5.2165510822
O         0.0000915415        1.8875814583        0.4088228437
O         1.8875725318        1.8834783681        2.8120137590
O         0.0017786644        0.0001359433        7.6216012683
O         0.0015634343        3.7756498427        1.9923349241
O         1.8854811172       13.2368327719        6.8019898067
O        11.3511033011        1.8852607326        4.3976951883
O         5.6721341008        0.0019867351        9.2082524490
O         1.8838314213        3.7758216602        5.2177849561
O         0.0000064284       13.2372830828        0.4080456140
O         5.6721168611        1.8836394527        2.8108387564
O        11.3513119676        0.0000499390        7.6215254990
O         3.7758371155        0.0002977973        7.6236911480
O        13.2370136909        1.8835686280        2.8119811893
O        13.2368649410        0.0018118955        9.2071045023
O         3.7757121837        1.8853569373        4.3957359295
O         1.8855124108        5.6720214064        6.8028691255
O         0.0014971232       11.3510371317        1.9940238857
O         0.0002502823        5.6723837955        0.4072467397
O         1.8838018169       11.3513146918        5.2158133263
O         0.0016635596        7.5665610842        1.9959640433
O         1.8855408429        9.4630616672        6.7997689186
O         7.5666943647        1.8853793537        4.3991427367
O         9.4627392839        0.0019736267        9.2055360963
O         1.8839408224        7.5667836417        5.2152181496
O         0.0002796538        9.4629948294        0.4108691281
O         9.4630992462        1.8838151490        2.8139246325
O         7.5668804010        0.0001934802        7.6204601321
O         3.7704957159        0.0014567458        1.9942944589
O        13.2385429704        1.8872798692        6.8019464950
O         0.0015581679        5.6570383251        4.3975183664
O         1.8873309226       11.3548601453        9.2073171666
O        13.2367812033        0.0016719477        5.2160436612
O         3.7686610444        1.8877355811        0.4080255180
O         1.8876610356        5.6542444885        2.8121412868
O         0.0017922792       11.3530924744        7.6215488281
O        11.3531270715        1.8877431457        0.4083237315
O         5.6546950530        0.0017486637        5.2161898020
O         5.6570680896        1.8874181816        6.8017425111
O        11.3546416242        0.0014915735        1.9943004959
O         1.8875150089        3.7706812806        9.2071805773
O         0.0015593366       13.2382745166        4.3978921858
O         0.0017456643        3.7690300569        7.6214509607
O         1.8875322431       13.2366871286        2.8123602776
O         3.7708777150        3.7754050018        1.9932716782
O        13.2383523834       13.2369334772        6.8016373409
O        11.3508534176        5.6569637895        4.3977134302
O         5.6718469374       11.3549158315        9.2086456922
O        13.2368626080        3.7757445797        5.2184884068
O         3.7685080190       13.2370831543        0.4083349025
O         5.6722100205        5.6553337819        2.8111778200
O        11.3512849046       11.3531828690        7.6215361926
O        11.3532660126       13.2370455958        0.4091833422
O         5.6553713765        3.7758486341        5.2182663295
O         3.7757565163       11.3529850670        7.6235712509
O        13.2370247279        5.6542211543        2.8122019754
O         5.6567518243       13.2368685747        6.8014674843
O        11.3544572726        3.7753580498        1.9930418495
O        13.2367320973       11.3550213998        9.2073397287
O         3.7757116213        5.6574944694        4.3962038226
O         5.6576186199        5.6721679394        6.8028323541
O        11.3548375688       11.3508787805        1.9950836698
O        13.2367639894        3.7706672733        9.2076225021
O         3.7756078059       13.2381390301        4.3961190864
O        11.3531239831        5.6721289028        0.4079161255
O         5.6550929958       11.3510311967        5.2166153214
O         3.7758379620        3.7693743699        7.6232047773
O        13.2371316491       13.2367711447        2.8124497872
O        13.2368279235       11.3511158709        5.2163582866
O         3.7692677699        5.6720030365        0.4078418460
O         5.6721874373       13.2365765214        2.8112133535
O        11.3512971479        3.7689237503        7.6213194555
O         3.7706260712       11.3508701336        1.9945624461
O        13.2382878922        5.6722426111        6.8026450681
O        11.3510203051       13.2383405205        4.3981615088
O         5.6717998689        3.7710228390        9.2083566866
O         3.7707608498        7.5669859670        1.9954630488
O        13.2383297212        9.4629396681        6.7999140070
O         7.5669097671        5.6576196098        4.3988997079
O         9.4629128288       11.3549051449        9.2053652111
O        13.2367056894        7.5669933485        5.2148476805
O         3.7689924029        9.4632690792        0.4095773220
O         9.4629424471        5.6549453448        2.8137368056
O         7.5668679300       11.3531672020        7.6204964470
O        11.3531025634        9.4633401633        0.4102571994
O         5.6557177866        7.5669977863        5.2149291642
O         5.6575207584        9.4628395005        6.8000865018
O        11.3545579289        7.5667581553        1.9956482360
O         9.4628421378        3.7710637300        9.2054695256
O         7.5668830764       13.2381086160        4.3989354947
O         7.5670153658        3.7693359530        7.6201314300
O         9.4630310748       13.2366242600        2.8139402208
O         7.5840889980        0.0013275292        1.9948527902
O         9.4696842202        1.8874408017        6.8018475509
O         0.0013964409        9.4699362422        4.3985277483
O         1.8874194934        7.5839947178        9.2071800454
O         9.4682298656        0.0015647257        5.2163769979
O         7.5815024148        1.8877349642        0.4092813155
O         1.8876499453        9.4678068278        2.8124733329
O         0.0017738464        7.5818515323        7.6217852677
O         7.5831443886        3.7757810590        1.9925644042
O         9.4698364216       13.2368393257        6.8020085749
O        11.3510362379        9.4696247716        4.3979779775
O         5.6720137208        7.5833080863        9.2080620699
O         9.4677456872        3.7758340842        5.2177174104
O         7.5814348304       13.2372504852        0.4084420364
O         5.6719693977        9.4674635782        2.8111278083
O        11.3511928302        7.5818943281        7.6217070628
O         3.7759430689        7.5813525728        7.6234090916
O        13.2370101433        9.4678283829        2.8120459728
O        13.2368443103        7.5843402892        9.2069692249
O         3.7757167032        9.4694067176        4.3963249840
O         9.4694782968        5.6719076221        6.8031344201
O         7.5838773390       11.3509151333        1.9942155394
O         7.5809320209        5.6723406147        0.4073323680
O         9.4681192802       11.3512180937        5.2158864734
O         7.5830697543        7.5665860946        1.9959787540
O         9.4692920930        9.4629848371        6.8000195327
O         7.5668203750        9.4692542848        4.3992978558
O         9.4626833240        7.5837369517        9.2056884969
O         9.4678513868        7.5667944042        5.2153539506
O         7.5810508845        9.4629012513        0.4106950012
O         9.4630204072        9.4674910158        2.8137532107
O         7.5669716888        7.5810531975        7.6203154242
