     192
 i =       11, E =     -5770.4354032844
Ti        -0.0001159104        0.0003138999        0.0002092240
Ti         0.0014191756       -0.0019876283        0.0001890941
Ti         0.0006010499       -0.0010790976        0.0006539811
Ti         0.0003958214       -0.0008733993       -0.0010566568
Ti         0.0015207527        0.0004722846        0.0001770497
Ti        -0.0000302314        0.0006960791        0.0000307473
Ti         0.0001027090       -0.0037707058        0.0030522170
Ti        -0.0004519826       -0.0014384432        0.0001761992
Ti        -0.0002645654       -0.0010631512       -0.0017827842
Ti        -0.0001730481        0.0001368188        0.0006581909
Ti        -0.0012890937       -0.0017884535        0.0003534191
Ti        -0.0004898736       -0.0012910193        0.0005825739
Ti        -0.0006211480       -0.0010241648       -0.0008940474
Ti         0.0010625295       -0.0005743858       -0.0005409204
Ti         0.0006731464       -0.0001737293        0.0001297523
Ti        -0.0004933754       -0.0009765774        0.0003608250
Ti         0.0019156284        0.0003194346       -0.0005296275
Ti        -0.0006076896        0.0002744561        0.0006200188
Ti         0.0008548230       -0.0000627033        0.0001106860
Ti         0.0011283099       -0.0004310918       -0.0000554544
Ti         0.0018075325        0.0009376372        0.0000379132
Ti        -0.0001647069       -0.0005713726        0.0002205491
Ti        -0.0003854956       -0.0031327624        0.0020049011
Ti        -0.0002986115        0.0007035408        0.0003632559
Ti         0.0014163435        0.0003087245        0.0009897063
Ti         0.0013220123       -0.0005803931        0.0005349979
Ti        -0.0017220990       -0.0027165391       -0.0037196099
Ti         0.0008399772       -0.0019592974       -0.0008802040
Ti        -0.0026800961        0.0002871989        0.0016272303
Ti         0.0008550029       -0.0006825641       -0.0007789408
Ti         0.0002859917        0.0006879860        0.0097795140
Ti        -0.0002522687        0.0003870823        0.0008682467
Ti         0.0082753765        0.0002609156       -0.0022387912
Ti        -0.0001209499       -0.0005855636        0.0002906717
Ti        -0.0011292491        0.0010508793       -0.0001329560
Ti        -0.0000682956        0.0021382851       -0.0008216690
Ti         0.0019854638       -0.0004672259        0.0004695097
Ti        -0.0093042393       -0.0003881674       -0.0021275246
Ti        -0.0008428905       -0.0003354403       -0.0007350720
Ti         0.0024263198       -0.0002803447       -0.0005584736
Ti         0.0002932707       -0.0003945594        0.0001316556
Ti         0.0141146381       -0.0009137130        0.0035387008
Ti         0.0008447483        0.0008268594       -0.0004844033
Ti        -0.0005785441        0.0010378803        0.0000210573
Ti        -0.0006392913        0.0008525766       -0.0015723716
Ti         0.0013175797       -0.0004285833       -0.0001547124
Ti        -0.0004547069        0.0018485193        0.0073625248
Ti         0.0005608172        0.0014805646        0.0003672359
Ti         0.0012416852        0.0008910884       -0.0002925164
Ti         0.0003585947        0.0005857139       -0.0004503352
Ti        -0.0012020865        0.0010516728       -0.0020565488
Ti        -0.0010245698        0.0007211730       -0.0002050720
Ti         0.0006569948        0.0015492682        0.0016361769
Ti        -0.0007187757        0.0007800516       -0.0001727776
Ti        -0.0011161899        0.0012997691        0.0015833571
Ti         0.0021717177        0.0073987512       -0.0008059411
Ti         0.0015693656        0.0011647002       -0.0222516259
Ti        -0.0001068287       -0.0004486856       -0.0002974500
Ti        -0.0141805180       -0.0004293853        0.0038039756
Ti         0.0010710121        0.0005555545       -0.0000564629
Ti        -0.0005468399        0.0046163306       -0.0006332812
Ti         0.0004810447        0.0010596129       -0.0005110587
Ti        -0.0002555345        0.0015206410        0.0005623300
Ti         0.0008110586        0.0011786382       -0.0037798780
O         0.0000939750        0.0008950272       -0.0003103093
O         0.0003119137        0.0018556030       -0.0002342080
O        -0.0015678534       -0.0008219003        0.0002382413
O         0.0010274362       -0.0005493023        0.0005254897
O         0.0001605851        0.0001630293        0.0010111920
O         0.0006672033       -0.0004960686        0.0005210892
O         0.0001939665       -0.0007076605       -0.0003076861
O        -0.0009422143       -0.0004706070       -0.0004286517
O         0.0008275819        0.0014192614       -0.0002996206
O         0.0002558209        0.0011737152        0.0001401288
O        -0.0001146460       -0.0013938511       -0.0015788891
O         0.0011145291       -0.0017498150        0.0000939644
O         0.0004332751        0.0008671381        0.0009381130
O        -0.0001598052       -0.0003295777       -0.0006549398
O         0.0016240110       -0.0008103139        0.0002052579
O        -0.0000091585       -0.0015967077        0.0001781391
O         0.0002520506       -0.0011236000        0.0000227071
O        -0.0014100290       -0.0008161701        0.0003737899
O        -0.0001026457       -0.0008246935       -0.0003926578
O        -0.0000947635       -0.0006184104        0.0003121407
O        -0.0000749329       -0.0009693691       -0.0003582013
O        -0.0002135083       -0.0000383274       -0.0006203055
O         0.0014090416       -0.0013827624        0.0013406425
O        -0.0000231538        0.0000781299       -0.0004541541
O         0.0007100931        0.0006138639       -0.0001905421
O         0.0000463747       -0.0007591091       -0.0009923548
O         0.0025303148       -0.0014575465       -0.0006441669
O        -0.0010594029       -0.0028514657       -0.0011969619
O        -0.0000523261       -0.0002335211       -0.0001162175
O         0.0002751085       -0.0004138898       -0.0005552595
O        -0.0002176543       -0.0015830458        0.0019800692
O         0.0000755842       -0.0024845822        0.0005678783
O        -0.0003240007        0.0008565353        0.0005643049
O         0.0013109320        0.0008918975       -0.0000206938
O        -0.0024291954        0.0000970311        0.0005012891
O         0.0009808041        0.0002390142        0.0005098759
O         0.0008254469        0.0007071022       -0.0006323949
O        -0.0008391230        0.0017910217        0.0005247402
O         0.0005728636        0.0000613129       -0.0001655660
O        -0.0012220810        0.0003571830        0.0002285783
O        -0.0004107065        0.0059983740       -0.0020898789
O        -0.0003420400        0.0006189446       -0.0005029422
O         0.0000823957        0.0039826894       -0.0003083555
O         0.0006826755        0.0008702576       -0.0005537872
O         0.0006404029        0.0000175926        0.0015699947
O        -0.0010049344        0.0000131393       -0.0003069695
O        -0.0031747586       -0.0000035966       -0.0021141403
O         0.0003579922        0.0002963513       -0.0002893796
O        -0.0009365192        0.0002794741       -0.0002055961
O         0.0005851055       -0.0006117322        0.0007486447
O        -0.0003761939        0.0006926973       -0.0041453702
O         0.0014073043        0.0005096059       -0.0005951024
O         0.0012734047        0.0006304634        0.0011157458
O         0.0000660285        0.0008780720       -0.0001792239
O         0.0020472973        0.0004065830        0.0000398992
O        -0.0006974159        0.0004410921        0.0003441608
O         0.0000327139        0.0002077702        0.0002198626
O        -0.0013107399        0.0000245743        0.0009306778
O        -0.0001513471        0.0003301133        0.0011201821
O        -0.0031391073        0.0003093554        0.0002510101
O         0.0000593651        0.0016169944       -0.0005504126
O         0.0021825817        0.0014140503       -0.0039457471
O         0.0001623804        0.0004616373       -0.0001843732
O        -0.0003791086        0.0000161817        0.0003241723
O         0.0003305212       -0.0028762260       -0.0001614019
O         0.0001439960        0.0008117505        0.0019446742
O        -0.0084620907       -0.0005976955        0.0021537100
O         0.0002216494        0.0001083667       -0.0004511775
O        -0.0008217148       -0.0063905269       -0.0055725551
O        -0.0001954282       -0.0004774100       -0.0012879113
O         0.0035566957       -0.0004179027       -0.0030414916
O        -0.0005304602       -0.0002995708        0.0011532068
O         0.0004023738        0.0008302207        0.0001062204
O        -0.0009765990       -0.0021731935        0.0010448439
O         0.0007099844       -0.0000484415       -0.0004079847
O        -0.0077327709       -0.0005403791        0.0014258344
O         0.0001531775        0.0001912735        0.0006031383
O         0.0014149988       -0.0013195690       -0.0002633738
O        -0.0006911337       -0.0004354421        0.0002362509
O         0.0068843355       -0.0005140783        0.0021965782
O        -0.0003810099       -0.0012270710        0.0001742060
O         0.0000863871       -0.0015637855        0.0006283636
O         0.0013444310        0.0007142812       -0.0029013338
O         0.0002970861        0.0008623189       -0.0010711472
O         0.0006022019        0.0006242719        0.0003898325
O         0.0000819339       -0.0009380661        0.0012542539
O         0.0001126084        0.0009077183        0.0003368726
O        -0.0006881458        0.0007006994       -0.0002260285
O         0.0003774955       -0.0068437736       -0.0008777307
O        -0.0003361077       -0.0007965880       -0.0002605914
O         0.0000018847       -0.0023969851       -0.0004407369
O         0.0012422002       -0.0012996982       -0.0016450087
O        -0.0001557964       -0.0004967139        0.0142846361
O        -0.0010909682       -0.0001093650        0.0004718522
O         0.0085342744       -0.0005847625        0.0001588778
O        -0.0011788279       -0.0004004307        0.0001877732
O        -0.0003315595        0.0008563660        0.0011754576
O         0.0002471032        0.0024830669        0.0007072219
O        -0.0004788448        0.0002569504       -0.0004304044
O        -0.0014071418        0.0003567157       -0.0002587597
O        -0.0003943306        0.0008094167       -0.0002575576
O        -0.0012546873        0.0058522245       -0.0011533271
O        -0.0008488380        0.0000183461        0.0000836289
O        -0.0000109574        0.0004950740       -0.0005919379
O        -0.0021017314        0.0005393287       -0.0027024435
O        -0.0004281359       -0.0003848345        0.0009063605
O        -0.0008946867        0.0003128484       -0.0008567400
O         0.0016814529        0.0011980640        0.0009798672
O         0.0001589431        0.0014659434        0.0084855898
O         0.0001283024        0.0015137476        0.0004130527
O         0.0002506355        0.0002286665       -0.0010049951
O        -0.0009856856        0.0017342297        0.0011609817
O         0.0000669520        0.0008533134       -0.0008023891
O        -0.0017260894        0.0001872499       -0.0002767899
O        -0.0037737186       -0.0001263750        0.0008578643
O         0.0007359361        0.0000943568        0.0004951166
O         0.0003908391       -0.0030330642       -0.0005341136
O        -0.0000305580        0.0002809748        0.0014429198
O        -0.0015152212       -0.0050745925       -0.0037881481
O        -0.0000472776       -0.0006207723       -0.0006825536
O        -0.0011624253       -0.0019870451       -0.0002532171
O         0.0001600606       -0.0030234067        0.0003385568
O         0.0006337109        0.0005167274       -0.0003354170
O         0.0001037220       -0.0006132040        0.0038931871
O         0.0001847906       -0.0005203666        0.0008485070
O        -0.0003497869       -0.0045190570        0.0002498531
O         0.0003162965        0.0003620713       -0.0002352006
O        -0.0007688377        0.0019312694        0.0004921394
     192
 i =       12, E =     -5770.4406131334
Ti        -0.0003567226        0.0001786021        0.0002115949
Ti         0.0011333010       -0.0009480535        0.0003217106
Ti         0.0003250815       -0.0005293332       -0.0000895398
Ti         0.0010259108       -0.0005520032       -0.0003064614
Ti         0.0000008953       -0.0001683613        0.0001081029
Ti         0.0002659927        0.0000952180       -0.0000963032
Ti        -0.0005089930       -0.0001191877       -0.0002364894
Ti        -0.0003511496        0.0001095673        0.0000766740
Ti        -0.0002715298       -0.0002184180       -0.0021096924
Ti         0.0000796632        0.0001551497        0.0000099421
Ti         0.0000980433       -0.0002715457        0.0019003544
Ti        -0.0005815795        0.0015478405       -0.0001069802
Ti         0.0001413162       -0.0006660690       -0.0009386830
Ti         0.0000596907       -0.0003189076        0.0002080622
Ti        -0.0005821011        0.0003590253        0.0004064829
Ti         0.0002544555       -0.0004461323       -0.0001572441
Ti         0.0014636951        0.0001723248        0.0004087125
Ti        -0.0005953114        0.0003141006        0.0002166395
Ti         0.0002196877       -0.0001353911        0.0003186760
Ti         0.0002772590       -0.0001055486       -0.0001660699
Ti         0.0004424589        0.0013192349       -0.0000249580
Ti         0.0000206339       -0.0004123820        0.0004384501
Ti        -0.0004425034        0.0000411018       -0.0014949322
Ti         0.0002298431        0.0017713329        0.0004384021
Ti         0.0017018168       -0.0008217716        0.0008381959
Ti         0.0007050113       -0.0009036203        0.0000731693
Ti        -0.0013583632       -0.0011005347       -0.0013692781
Ti         0.0002436705        0.0010298613       -0.0002002853
Ti        -0.0001172290        0.0002373972        0.0007967646
Ti         0.0003029862       -0.0002343015       -0.0003526836
Ti        -0.0007197037       -0.0001295021        0.0005889974
Ti         0.0008419444        0.0009048381        0.0009439842
Ti         0.0006283860        0.0003252915       -0.0007263548
Ti         0.0000450955       -0.0000658746        0.0001798819
Ti         0.0001864863        0.0000068479        0.0021065069
Ti        -0.0000460909        0.0017032402       -0.0010517322
Ti         0.0008786625       -0.0004329718        0.0002242629
Ti        -0.0001758055        0.0000881467       -0.0009580171
Ti        -0.0008580880       -0.0001250155       -0.0002680706
Ti         0.0012070592       -0.0002987943       -0.0001983631
Ti         0.0008391433        0.0005337536        0.0006161575
Ti         0.0001887576        0.0040051703       -0.0005652164
Ti         0.0002764346        0.0004430145        0.0001810620
Ti         0.0002555879        0.0009235914       -0.0004706930
Ti         0.0001631176        0.0003881945       -0.0010933796
Ti         0.0005380663       -0.0009374156        0.0001575064
Ti         0.0000160263        0.0002048291        0.0003156067
Ti         0.0003695812        0.0010506873        0.0006159096
Ti        -0.0004908870        0.0002518667        0.0005965407
Ti         0.0008985130       -0.0003821356       -0.0008516750
Ti        -0.0007059690        0.0010755234       -0.0007023823
Ti        -0.0007288898        0.0007575567       -0.0004015492
Ti         0.0001376149       -0.0007627560        0.0006839199
Ti         0.0002787197       -0.0018541782       -0.0002490410
Ti        -0.0001775308       -0.0001186845        0.0012310655
Ti        -0.0012080999       -0.0011848426        0.0004968094
Ti        -0.0016495212        0.0008915660       -0.0082372099
Ti         0.0000538805        0.0002838370       -0.0004574111
Ti        -0.0018629831        0.0023609871       -0.0028593237
Ti         0.0005772836        0.0005512306       -0.0000668866
Ti         0.0023033024       -0.0015769206        0.0001915125
Ti         0.0000175385       -0.0005423012        0.0001534234
Ti         0.0000761850       -0.0006596113        0.0000914745
Ti         0.0006288175       -0.0006184617       -0.0008109310
O        -0.0001355098       -0.0000703537       -0.0000414915
O        -0.0000490311        0.0001356587       -0.0000913285
O        -0.0002894795        0.0001578607       -0.0002839710
O        -0.0000505851        0.0002487477        0.0002530675
O        -0.0000631610       -0.0001621745        0.0007594022
O        -0.0002171960       -0.0004101646        0.0000443815
O        -0.0005369571        0.0000582357        0.0004230667
O         0.0000707215        0.0001674948       -0.0000390703
O        -0.0004648893       -0.0000826449        0.0003347119
O        -0.0000605832       -0.0003221503        0.0000136777
O         0.0008386152        0.0004114285       -0.0012033688
O        -0.0004037349        0.0007673812        0.0002816156
O         0.0000050226        0.0003324416        0.0000183758
O         0.0000773317       -0.0001311217       -0.0003685270
O        -0.0002475260       -0.0001487237        0.0005827388
O         0.0009729866        0.0007846042       -0.0005520180
O        -0.0004159014        0.0003973235        0.0004928568
O         0.0010652723       -0.0000624532        0.0005542074
O         0.0012854757        0.0005652150       -0.0003629523
O        -0.0009614575       -0.0002050651        0.0001999829
O         0.0001190331       -0.0002637418       -0.0000978769
O         0.0000684318        0.0002360184       -0.0004601384
O        -0.0002899644       -0.0009842013        0.0001657945
O        -0.0001015025        0.0001016682        0.0006126266
O        -0.0003268252        0.0006273165        0.0001038744
O         0.0001663567        0.0005555522       -0.0008255294
O         0.0015300651        0.0003889333       -0.0007170792
O        -0.0003684900        0.0010608240       -0.0005987498
O         0.0002336628        0.0000792520       -0.0008828069
O        -0.0001878242       -0.0000512446       -0.0007134787
O         0.0004372724       -0.0000454300        0.0016658768
O         0.0001281221        0.0010060276       -0.0004197126
O         0.0002256590        0.0000701594        0.0003571024
O         0.0003159661       -0.0009415144       -0.0003523601
O        -0.0014304219        0.0001237483       -0.0000217363
O         0.0007319520       -0.0000424075        0.0000160795
O        -0.0001693176       -0.0000340114       -0.0002806761
O        -0.0000186240       -0.0003542522        0.0002256693
O        -0.0000437160        0.0000413134        0.0005985902
O        -0.0001682253       -0.0002378028        0.0000350868
O        -0.0007906779       -0.0020518402        0.0000687339
O         0.0000198630        0.0004844311       -0.0006401900
O        -0.0000334869       -0.0011754716       -0.0013769207
O         0.0000498374        0.0000835590       -0.0002251474
O         0.0000935903       -0.0000489613        0.0007141112
O         0.0001795763        0.0000711694       -0.0001701076
O        -0.0006823830       -0.0000650361       -0.0008318052
O        -0.0000870500       -0.0000284336        0.0001100173
O         0.0001565807       -0.0002511227        0.0001293620
O         0.0000941021       -0.0005400643        0.0002913333
O        -0.0000647743        0.0000640316       -0.0031177601
O         0.0009903658       -0.0002249901       -0.0000486632
O        -0.0004962393       -0.0000376832       -0.0000327019
O        -0.0001412145        0.0000043909        0.0000347172
O        -0.0008605423        0.0001669206        0.0008676148
O        -0.0002782946       -0.0002541539        0.0000443670
O         0.0001953035       -0.0016226139        0.0009732975
O        -0.0004312505        0.0000750592       -0.0007564075
O        -0.0001262187       -0.0003044447        0.0006464820
O         0.0013798851        0.0001508014        0.0011945400
O        -0.0001808783       -0.0011183494       -0.0010730138
O         0.0004812791        0.0000700139        0.0005180447
O         0.0001087130       -0.0001659078        0.0002660299
O        -0.0010084303        0.0002191850        0.0000935905
O         0.0002412209       -0.0001186369       -0.0016158635
O         0.0001401316        0.0004613937       -0.0000713859
O        -0.0016178118        0.0000898614        0.0013276654
O        -0.0002178544       -0.0000622053       -0.0007070627
O        -0.0006181657       -0.0045112674        0.0003638909
O        -0.0003279440       -0.0005311436        0.0000591764
O         0.0004407014        0.0000750719       -0.0024814885
O        -0.0002940815        0.0001463934        0.0010386245
O         0.0000364380        0.0004563574        0.0003847437
O         0.0001060781       -0.0009862106        0.0001249266
O        -0.0001150798        0.0000514772       -0.0003703281
O        -0.0018569269       -0.0000075653        0.0006915422
O         0.0001208448        0.0003699191        0.0002630005
O         0.0004745225       -0.0003709591       -0.0003123331
O        -0.0003563169        0.0003844128        0.0002618704
O         0.0024472485        0.0001757205        0.0016272513
O         0.0000734391       -0.0008983959        0.0007776671
O         0.0001572235        0.0003331327        0.0003649558
O         0.0010772680       -0.0000498567       -0.0023996362
O         0.0001105002       -0.0003142905       -0.0004424135
O        -0.0001135801        0.0006448232       -0.0001481845
O        -0.0001624556        0.0003478441        0.0008321771
O        -0.0000645379       -0.0000834192        0.0016646516
O        -0.0008320310       -0.0003776338       -0.0003183638
O        -0.0000058404       -0.0005779118       -0.0004869212
O        -0.0000565848       -0.0004150208       -0.0004272095
O        -0.0000775743        0.0008059273       -0.0008373385
O         0.0002210457       -0.0000063668       -0.0001921049
O         0.0007977295       -0.0010480824        0.0094517612
O        -0.0008336780        0.0001084971        0.0005579953
O         0.0020643272       -0.0000257488        0.0012479539
O        -0.0005793752        0.0000701172        0.0006164234
O         0.0001464759        0.0001001269        0.0011171866
O         0.0001184326       -0.0028895632       -0.0000995723
O        -0.0002946255       -0.0000500579       -0.0005243798
O        -0.0000467942        0.0001771956       -0.0008046544
O         0.0000393083       -0.0001812422       -0.0006054375
O        -0.0008155346       -0.0020305428        0.0007605653
O        -0.0006605908       -0.0000999684        0.0002006237
O        -0.0002110078       -0.0001281970       -0.0000970280
O        -0.0005970638       -0.0000573473        0.0009644787
O         0.0001402827       -0.0020815575       -0.0003832271
O        -0.0002000357       -0.0000910850       -0.0005556375
O        -0.0010282089        0.0006022377        0.0002192497
O        -0.0001603411        0.0007564119        0.0062005403
O        -0.0001516186       -0.0014618216        0.0012624996
O        -0.0005746476        0.0000244614       -0.0002166830
O         0.0000991173        0.0013070322       -0.0004163281
O        -0.0013780450        0.0006154395        0.0000211910
O        -0.0000795920        0.0000184452        0.0001633179
O         0.0011974563       -0.0003900459       -0.0004190890
O         0.0002676362       -0.0001943490        0.0005235212
O         0.0003556137        0.0000012948       -0.0011384422
O         0.0001985363        0.0001141829       -0.0002993852
O        -0.0020635013       -0.0026536369        0.0001637771
O        -0.0000133300       -0.0003994928        0.0001996687
O        -0.0001700793       -0.0005216497        0.0009570697
O         0.0001067946        0.0006760611       -0.0003413917
O         0.0000647706        0.0002092608       -0.0003942545
O        -0.0007470188       -0.0003310787        0.0010949206
O         0.0001652182        0.0001108501        0.0002227976
O         0.0000997295        0.0004320081        0.0005671326
O         0.0001913700        0.0002398489       -0.0001196258
O        -0.0005375631        0.0011841116       -0.0001041182
