     192
 i =        7, E =     -5789.4657933186
Ti         0.0000099642       -0.0000226853       -0.0006440329
Ti         0.0002001398        0.0000896876        0.0005953121
Ti        -0.0000694452        0.0002197024       -0.0000103623
Ti         0.0001024959       -0.0000275780        0.0000187753
Ti         0.0000113834       -0.0001304752       -0.0005933098
Ti         0.0001984545        0.0000376464        0.0006852838
Ti        -0.0002070461        0.0001267923       -0.0000736125
Ti         0.0001301264        0.0000016079        0.0001227017
Ti         0.0001008541       -0.0000696622        0.0000399243
Ti        -0.0000779183        0.0000010047       -0.0001078547
Ti         0.0002154537        0.0001249711        0.0004470595
Ti        -0.0001017406       -0.0000777612       -0.0005300077
Ti        -0.0000572417       -0.0000612020       -0.0005613668
Ti         0.0000752447        0.0001412729        0.0005393024
Ti        -0.0000030065        0.0000130677        0.0001176600
Ti        -0.0001461032        0.0001214844       -0.0000225056
Ti         0.0001621805        0.0001758521        0.0006522786
Ti         0.0000042710       -0.0002169992       -0.0006570860
Ti        -0.0000593157        0.0001883456       -0.0001089838
Ti         0.0000994270       -0.0001048694        0.0001155270
Ti         0.0000018080       -0.0001947268       -0.0005449822
Ti         0.0001836538        0.0000317620        0.0006198775
Ti        -0.0002312055        0.0001904755       -0.0000045089
Ti         0.0000753309        0.0000066183        0.0000867611
Ti         0.0001046903       -0.0001519741        0.0000061804
Ti        -0.0000304131        0.0001599744       -0.0001185253
Ti         0.0001453289        0.0000581674        0.0004965038
Ti        -0.0001524188       -0.0000059499       -0.0005873876
Ti        -0.0000720691       -0.0000796952       -0.0005620340
Ti         0.0000919761       -0.0000343025        0.0006211880
Ti        -0.0001617111        0.0002411530       -0.0001825861
Ti         0.0001325357       -0.0001149123        0.0001779762
Ti         0.0000078204       -0.0000733883        0.0000894101
Ti        -0.0001370027        0.0000642374       -0.0001303335
Ti         0.0001882639        0.0001157908        0.0004978328
Ti        -0.0001153487       -0.0001492363       -0.0006034172
Ti        -0.0001872285        0.0001094279       -0.0002118717
Ti         0.0001214333       -0.0000663360        0.0001105650
Ti        -0.0000695551       -0.0001380829       -0.0006268419
Ti         0.0000658232        0.0001148012        0.0005782217
Ti         0.0002274438       -0.0000347673        0.0005255614
Ti        -0.0000991616       -0.0000939552       -0.0005203619
Ti         0.0000286797       -0.0001133538        0.0001857128
Ti        -0.0000994552        0.0002242728       -0.0001458994
Ti        -0.0000642617       -0.0002052221       -0.0004797170
Ti         0.0000646696        0.0000783886        0.0005682171
Ti        -0.0002296239        0.0001569246       -0.0000812001
Ti         0.0000765802       -0.0000885262        0.0001770950
Ti         0.0000225674       -0.0001410353        0.0000931759
Ti        -0.0001306751        0.0000663205       -0.0001003982
Ti         0.0001097074        0.0001481081        0.0005649675
Ti        -0.0001609808       -0.0001769204       -0.0006246321
Ti        -0.0001837724        0.0000891089       -0.0001633915
Ti         0.0001155135       -0.0001242929        0.0000998861
Ti         0.0001812547        0.0000744317        0.0004919445
Ti        -0.0000954487       -0.0002424262       -0.0004425896
Ti         0.0000658981       -0.0000493638        0.0000938726
Ti        -0.0002685579        0.0000090179       -0.0000857026
Ti        -0.0001430093       -0.0001135581       -0.0005379638
Ti         0.0001298006        0.0000210908        0.0006036325
Ti        -0.0001604526       -0.0001756468       -0.0005010934
Ti         0.0001199751        0.0000342400        0.0005442105
Ti        -0.0002281860        0.0001256601       -0.0000676262
Ti         0.0000748515       -0.0001408176        0.0000537919
O        -0.0000103231       -0.0001005447        0.0004122423
O         0.0000420426        0.0000038822       -0.0002300998
O        -0.0001383968        0.0000777831        0.0002227224
O        -0.0000918576        0.0000126498       -0.0000491716
O         0.0000543096       -0.0000874985        0.0000010438
O         0.0000146134        0.0000324768       -0.0002168738
O         0.0000233436        0.0000280329       -0.0004720015
O        -0.0000284893        0.0000141212        0.0003271864
O         0.0000117528       -0.0003127901        0.0004722194
O         0.0000511542        0.0000469100       -0.0002783248
O        -0.0001002483        0.0000632994        0.0002626116
O         0.0001122864        0.0000255970       -0.0000724513
O         0.0000157607       -0.0002245794       -0.0000470639
O        -0.0000095948        0.0000891973       -0.0001135455
O         0.0002155556        0.0000321236       -0.0004438643
O         0.0000115133       -0.0000025980        0.0002582116
O        -0.0001652853        0.0000060843        0.0002522768
O         0.0001650601        0.0000670068       -0.0004251852
O         0.0000437184       -0.0000091401       -0.0001323858
O        -0.0002770749        0.0000275415        0.0002488773
O         0.0000424932        0.0001291077       -0.0002326355
O        -0.0000004636       -0.0000161891        0.0004502252
O         0.0000066623        0.0002255245       -0.0001636867
O         0.0000534319        0.0000624790       -0.0000406550
O         0.0000201670       -0.0002356794        0.0004169563
O         0.0000502152        0.0001583645       -0.0002276984
O        -0.0002520924        0.0000627360        0.0002740740
O         0.0002091555        0.0000045306       -0.0000616836
O         0.0000262903       -0.0001245645       -0.0000549814
O         0.0000017099        0.0002717862       -0.0001254301
O         0.0003224679        0.0000422499       -0.0004585128
O        -0.0001436881        0.0000191007        0.0002778059
O         0.0000504277       -0.0000704855        0.0003808561
O        -0.0000076927        0.0000142219       -0.0002099298
O        -0.0001006644       -0.0000027111        0.0002586448
O        -0.0000688265       -0.0000333647       -0.0000953359
O         0.0000104966       -0.0000914043       -0.0000042849
O         0.0000408751        0.0000330581       -0.0001822511
O         0.0000056491       -0.0000438764       -0.0005058187
O        -0.0000469600       -0.0000375572        0.0003174111
O        -0.0000637247        0.0000812245       -0.0001685881
O        -0.0000771835       -0.0000353713       -0.0000578653
O         0.0000182454       -0.0000137921       -0.0001333676
O        -0.0000606787       -0.0001525914        0.0003968081
O        -0.0000477126        0.0000306229       -0.0000766954
O        -0.0001586744        0.0000013974        0.0002478976
O        -0.0000148689       -0.0000018327        0.0003034693
O         0.0000621088        0.0000024398       -0.0005036442
O         0.0000652937       -0.0002811305        0.0004083363
O        -0.0000091512        0.0000239836       -0.0002512857
O        -0.0000641555        0.0000188243        0.0003084472
O         0.0001147915       -0.0000056689       -0.0000666088
O        -0.0000130617       -0.0002379618       -0.0000690399
O         0.0000481888        0.0000592997       -0.0001229184
O         0.0001987228       -0.0000470391       -0.0004384628
O         0.0000073192       -0.0000190882        0.0002946517
O        -0.0000617104        0.0000947656       -0.0000877426
O        -0.0000444363       -0.0002188927       -0.0000981714
O        -0.0001757397       -0.0000222544        0.0002819071
O         0.0001142408       -0.0000610619       -0.0004465095
O         0.0000065926        0.0000197278       -0.0001977843
O        -0.0000415675       -0.0003249762        0.0004235050
O         0.0000552379       -0.0000316721       -0.0001427144
O        -0.0002744501        0.0000148860        0.0003033545
O         0.0000230104        0.0001232862       -0.0001715967
O        -0.0000484566        0.0000057248        0.0004087859
O         0.0000125496        0.0000162695       -0.0001132374
O        -0.0003195163        0.0000116006        0.0002932631
O        -0.0000399482        0.0002100954       -0.0001547151
O        -0.0000497803        0.0000545920       -0.0001112397
O        -0.0001781213        0.0000200289        0.0002727882
O         0.0001297490       -0.0000101289       -0.0004673578
O        -0.0000155092        0.0000946183       -0.0000871375
O         0.0000241044        0.0001982029       -0.0001452304
O         0.0002433736       -0.0000357640       -0.0004760747
O         0.0000177956        0.0000136290        0.0002386853
O         0.0000482668       -0.0000055749        0.0003978169
O        -0.0000197210        0.0001380082       -0.0002161753
O        -0.0000557919        0.0000053065        0.0003339429
O         0.0001156998        0.0000332470       -0.0000748627
O         0.0000566410       -0.0002143608        0.0003951136
O        -0.0000208412        0.0001325035       -0.0002111042
O        -0.0002189829        0.0000073703        0.0002701004
O         0.0002069438       -0.0000107334       -0.0000901113
O        -0.0000484955       -0.0001041028       -0.0000695398
O         0.0000221059        0.0002404843       -0.0001265122
O         0.0003048567       -0.0000444756       -0.0004659362
O        -0.0001369695       -0.0000295807        0.0002564555
O        -0.0000509281        0.0002334260       -0.0001101561
O        -0.0000403413       -0.0001167956       -0.0000486851
O         0.0000223618        0.0001712238       -0.0001758139
O        -0.0000254550       -0.0002006683        0.0004123371
O         0.0001882665        0.0000271986       -0.0000561455
O        -0.0002402540       -0.0000245527        0.0003028925
O        -0.0001379152        0.0000021354        0.0002217009
O         0.0003065267       -0.0000166808       -0.0005100806
O         0.0000556333       -0.0001216446        0.0004053760
O        -0.0000253801        0.0000066861       -0.0001920958
O        -0.0001101689       -0.0000350016        0.0002299658
O        -0.0000344437        0.0000297187       -0.0000034902
O        -0.0000346199       -0.0000523012        0.0000068786
O        -0.0000315675        0.0000695281       -0.0002223320
O         0.0000534990       -0.0000569029       -0.0004515831
O        -0.0000396054       -0.0000085254        0.0002505849
O         0.0000392333       -0.0003127976        0.0004520075
O        -0.0000264001       -0.0000055934       -0.0002604392
O        -0.0000310179       -0.0000712391        0.0002823978
O         0.0001244163        0.0000217474       -0.0000528289
O        -0.0000513173       -0.0002127708       -0.0000368193
O        -0.0000254882        0.0000657881       -0.0001458459
O         0.0002287138       -0.0000525244       -0.0004241913
O         0.0000249905       -0.0000160231        0.0001542481
O        -0.0001987615       -0.0000268327        0.0001866565
O         0.0000773096       -0.0000516830       -0.0004033350
O         0.0000177098        0.0000465916       -0.0000567525
O        -0.0003016606       -0.0000394558        0.0002504157
O        -0.0000229382        0.0001211543       -0.0002198608
O         0.0000441650        0.0000215813        0.0004701921
O        -0.0000278130        0.0002005023       -0.0001797522
O        -0.0000568281        0.0000794727       -0.0000427740
O         0.0000391698       -0.0001844210        0.0004028269
O        -0.0000311083        0.0001263901       -0.0002217775
O        -0.0002214922       -0.0000304435        0.0002664275
O         0.0001896664        0.0000369508        0.0000076809
O        -0.0000551737       -0.0001073771       -0.0000343183
O        -0.0000204653        0.0002137640       -0.0001818468
O         0.0002735137       -0.0000769900       -0.0004482989
O        -0.0001297152       -0.0000179239        0.0001955276
     192
 i =        8, E =     -5789.4658395801
Ti         0.0000449918       -0.0000602930       -0.0002509495
Ti         0.0001907939        0.0001548604        0.0002279848
Ti        -0.0000718595        0.0001975590        0.0000211261
Ti         0.0001006295       -0.0000202242        0.0000376966
Ti         0.0000090001       -0.0001747189       -0.0002809922
Ti         0.0001965332       -0.0000574324        0.0002943464
Ti        -0.0002139667        0.0002281470       -0.0000413164
Ti         0.0001110714       -0.0000078733        0.0000307536
Ti         0.0000793087       -0.0000956745        0.0000142219
Ti        -0.0000849609        0.0000682959       -0.0000615000
Ti         0.0002201268        0.0001030429        0.0001564004
Ti        -0.0001285483       -0.0000468975       -0.0002290060
Ti        -0.0000714333       -0.0000229060       -0.0002165647
Ti         0.0000970098        0.0001189451        0.0001888640
Ti        -0.0000000947       -0.0000230384        0.0000294973
Ti        -0.0001665451        0.0001935696       -0.0000474943
Ti         0.0001830281        0.0001608303        0.0002133137
Ti         0.0000281941       -0.0001511775       -0.0003063426
Ti        -0.0000158856        0.0002225061       -0.0000058510
Ti         0.0001081474       -0.0001194798        0.0000160192
Ti         0.0000285631       -0.0002314102       -0.0002197436
Ti         0.0001687990        0.0000635393        0.0002478085
Ti        -0.0002546881        0.0001769901       -0.0000132217
Ti         0.0000903321        0.0000004063        0.0000364851
Ti         0.0001034676       -0.0001142343       -0.0000111134
Ti        -0.0000425783        0.0001223713        0.0000307829
Ti         0.0001915055        0.0001236411        0.0002073591
Ti        -0.0001411706       -0.0000442134       -0.0001910576
Ti        -0.0000448986       -0.0001600567       -0.0001809655
Ti         0.0000883835       -0.0000264595        0.0002770927
Ti        -0.0001854271        0.0001919965       -0.0000344061
Ti         0.0001215098       -0.0000797020        0.0000967346
Ti        -0.0000020807       -0.0000914827        0.0000930472
Ti        -0.0001869748        0.0000060840       -0.0000892442
Ti         0.0001688823        0.0001662549        0.0001736571
Ti        -0.0001149858       -0.0001684211       -0.0002371500
Ti        -0.0002106439        0.0000531973       -0.0000735005
Ti         0.0001309905       -0.0000778558        0.0000916540
Ti        -0.0000680339       -0.0001641067       -0.0002168976
Ti         0.0000674218        0.0001754801        0.0002042537
Ti         0.0002224569       -0.0000166823        0.0002499528
Ti        -0.0000977987       -0.0001945206       -0.0002018212
Ti         0.0000211560       -0.0000835192        0.0000828013
Ti        -0.0001594105        0.0001760179       -0.0000317180
Ti        -0.0000660380       -0.0001731873       -0.0001706924
Ti         0.0000826564        0.0000287469        0.0001917996
Ti        -0.0002346596        0.0002177384       -0.0000552597
Ti         0.0000784686       -0.0000773124        0.0000285930
Ti        -0.0000064125       -0.0001220211        0.0000158648
Ti        -0.0001634715        0.0001274539       -0.0000582727
Ti         0.0001601208        0.0001232492        0.0002025700
Ti        -0.0001764001       -0.0001296011       -0.0002623629
Ti        -0.0001585370        0.0001353618       -0.0000522470
Ti         0.0001288036       -0.0001358097        0.0000188301
Ti         0.0001903730        0.0000167318        0.0001644981
Ti        -0.0001128192       -0.0002061413       -0.0001960398
Ti         0.0000745943       -0.0000971245        0.0000376988
Ti        -0.0002431632        0.0000486467       -0.0000920964
Ti        -0.0001504655       -0.0001316955       -0.0002220239
Ti         0.0002001253       -0.0000498100        0.0002776304
Ti        -0.0001504379       -0.0002160990       -0.0001640089
Ti         0.0001508426        0.0000541705        0.0002404213
Ti        -0.0002465406        0.0000766982       -0.0000105191
Ti         0.0000762831       -0.0000993686        0.0000172405
O        -0.0000186902       -0.0000491491        0.0000059948
O        -0.0000223515        0.0000226230       -0.0000800442
O        -0.0000760760       -0.0000670312        0.0000640976
O         0.0000353939       -0.0000239255       -0.0001032768
O        -0.0000559735       -0.0000112833        0.0001233572
O        -0.0000266219        0.0000552799       -0.0001038804
O         0.0000627015       -0.0000533651       -0.0000586701
O        -0.0000169879       -0.0000183371        0.0000922528
O        -0.0000141466       -0.0001585974       -0.0000211074
O        -0.0000418688        0.0000575113       -0.0000829489
O        -0.0000757716       -0.0000662096        0.0000850646
O         0.0000670648       -0.0000217480       -0.0001577170
O        -0.0000202544       -0.0000996605        0.0001925223
O        -0.0000163857        0.0000544288       -0.0000274740
O         0.0001807020       -0.0000402154        0.0000124224
O        -0.0000421775       -0.0000084179        0.0000696624
O        -0.0000745192       -0.0000191373        0.0001466960
O         0.0000575136       -0.0000776463       -0.0000177167
O        -0.0000124182       -0.0000001449       -0.0001242549
O        -0.0001600240       -0.0000299807        0.0000375663
O        -0.0000253669        0.0000633135       -0.0001186650
O        -0.0000112279       -0.0000627030        0.0000762813
O        -0.0000290499        0.0001413011       -0.0000277620
O        -0.0000452210       -0.0000096997        0.0001296657
O        -0.0000259114       -0.0001657251       -0.0000247422
O        -0.0000280152        0.0000604784       -0.0001313742
O        -0.0001799460       -0.0000465472        0.0000251503
O         0.0000751701       -0.0000137445       -0.0001895076
O        -0.0000331505       -0.0000933836        0.0001654690
O        -0.0000210253        0.0001573785       -0.0000214446
O         0.0001445463       -0.0000569792        0.0000116801
O        -0.0000765993       -0.0000180958        0.0001272131
O        -0.0000192220       -0.0000619441        0.0000326557
O         0.0000120140        0.0000201822       -0.0000425913
O        -0.0000807504       -0.0000117984        0.0001037933
O         0.0000084417        0.0000289817       -0.0001137378
O         0.0000053187        0.0000130077        0.0001347237
O        -0.0000440118        0.0000358238       -0.0000964254
O         0.0000416890       -0.0000307073       -0.0000959258
O        -0.0000421205        0.0000159606        0.0001132857
O         0.0000532153        0.0000209361       -0.0000552448
O        -0.0000231426       -0.0000117214        0.0000986310
O        -0.0000036588        0.0000229479       -0.0000165776
O         0.0000694152       -0.0000578643        0.0000144650
O         0.0000230678       -0.0000023043       -0.0000673358
O        -0.0000697715        0.0000187834        0.0000683878
O        -0.0000330386       -0.0000016254        0.0000729970
O         0.0000695464        0.0000153358       -0.0001008483
O        -0.0000240556       -0.0001262634       -0.0000382987
O         0.0000238557        0.0000207667       -0.0000671319
O        -0.0000739180       -0.0000121557        0.0001208052
O         0.0000942924        0.0000064366       -0.0001870364
O         0.0000135491       -0.0000783879        0.0001465979
O        -0.0000391989        0.0000782480       -0.0000644386
O         0.0001493525       -0.0000295168       -0.0000262516
O        -0.0000521394        0.0000080741        0.0001044035
O         0.0000569167        0.0000763805       -0.0000482890
O        -0.0000371220       -0.0000962593        0.0001261445
O        -0.0000492097        0.0000114907        0.0001632626
O         0.0000374874       -0.0000378569       -0.0000750882
O         0.0000071122        0.0000307193       -0.0000578917
O         0.0000430426       -0.0001287757       -0.0000474442
O         0.0000137924        0.0000215289       -0.0001460900
O        -0.0001258724       -0.0000129347        0.0000607073
O        -0.0000026580        0.0000425219       -0.0000750294
O         0.0000445279       -0.0000752300        0.0000201664
O         0.0000143976        0.0000072854       -0.0001142302
O        -0.0001499363        0.0000184919        0.0000436573
O         0.0000293824        0.0001570540       -0.0000131639
O        -0.0000384005       -0.0000082338        0.0000420287
O        -0.0000645476       -0.0000108263        0.0001029608
O         0.0000468784        0.0000166814       -0.0000778635
O         0.0000105743       -0.0000241297        0.0000832229
O        -0.0000292083        0.0001319974       -0.0000517306
O         0.0001791514        0.0000217261       -0.0000238989
O        -0.0000408751       -0.0000040843        0.0000392757
O        -0.0000304004       -0.0000361058        0.0000499990
O         0.0000314233        0.0000551576       -0.0001112115
O        -0.0000839394        0.0000206981        0.0000888456
O         0.0000758193       -0.0000002048       -0.0001602217
O        -0.0000078711       -0.0001504355        0.0000026811
O         0.0000273988        0.0000862489       -0.0001074947
O        -0.0001409193       -0.0000120729        0.0000633059
O         0.0000726778        0.0000118550       -0.0001917183
O         0.0000324060       -0.0000932687        0.0001537515
O        -0.0000290401        0.0001033839       -0.0000129540
O         0.0001526016       -0.0000309167       -0.0000193353
O        -0.0000878193        0.0000057261        0.0001639508
O         0.0000275125        0.0001435501        0.0000185309
O        -0.0000278564       -0.0000733514        0.0001389553
O        -0.0000096043        0.0000967235       -0.0000703973
O         0.0000342740       -0.0001699494       -0.0000109195
O         0.0000582119        0.0000050462       -0.0001713518
O        -0.0001859755        0.0000327420        0.0000505371
O        -0.0000785375       -0.0000040622        0.0000970195
O         0.0001621164        0.0000151373       -0.0000073473
O         0.0000290374       -0.0000393933        0.0000155096
O         0.0000182811        0.0000033335       -0.0000130837
O        -0.0000730528        0.0000403902        0.0000631616
O         0.0000145740        0.0000175344       -0.0000767358
O        -0.0000071576        0.0000062114        0.0000814060
O         0.0000035453        0.0000351425       -0.0001140715
O         0.0000429869        0.0000284370       -0.0001222032
O        -0.0000332830       -0.0000049936        0.0000870056
O         0.0000340184       -0.0001377477        0.0000154745
O         0.0000103731        0.0000344535       -0.0000332652
O        -0.0000983791        0.0000543705        0.0001087916
O         0.0000592138        0.0000233617       -0.0001544899
O         0.0000072624       -0.0000587134        0.0001426335
O        -0.0000015219        0.0000411242       -0.0000589852
O         0.0001734012        0.0000197805       -0.0000212563
O        -0.0000569639       -0.0000099462        0.0000667760
O        -0.0000728220       -0.0000006250        0.0001125632
O         0.0000419149        0.0000345795       -0.0000716139
O         0.0000021186        0.0000208939       -0.0001008368
O        -0.0001110377        0.0000290414        0.0000567658
O         0.0000135696        0.0000607801       -0.0000681625
O         0.0000367101       -0.0000593918        0.0000803070
O        -0.0000019393        0.0001080643       -0.0000191217
O         0.0000205167       -0.0000436829        0.0000671755
O         0.0000235355       -0.0001326161       -0.0000079967
O         0.0000251142        0.0000649229       -0.0000887333
O        -0.0001530555        0.0000317121        0.0000498735
O         0.0001024435        0.0000210763       -0.0001696787
O        -0.0000010026       -0.0000857599        0.0001042034
O         0.0000002195        0.0001549311       -0.0000411119
O         0.0001394253        0.0000306566       -0.0000254632
O        -0.0000611516       -0.0000009990        0.0001090545
     192
 i =        9, E =     -5789.4658434185
Ti         0.0000449918       -0.0000602930       -0.0002509495
Ti         0.0001907939        0.0001548604        0.0002279848
Ti        -0.0000718595        0.0001975590        0.0000211261
Ti         0.0001006295       -0.0000202242        0.0000376966
Ti         0.0000090001       -0.0001747189       -0.0002809922
Ti         0.0001965332       -0.0000574324        0.0002943464
Ti        -0.0002139667        0.0002281470       -0.0000413164
Ti         0.0001110714       -0.0000078733        0.0000307536
Ti         0.0000793087       -0.0000956745        0.0000142219
Ti        -0.0000849609        0.0000682959       -0.0000615000
Ti         0.0002201268        0.0001030429        0.0001564004
Ti        -0.0001285483       -0.0000468975       -0.0002290060
Ti        -0.0000714333       -0.0000229060       -0.0002165647
Ti         0.0000970098        0.0001189451        0.0001888640
Ti        -0.0000000947       -0.0000230384        0.0000294973
Ti        -0.0001665451        0.0001935696       -0.0000474943
Ti         0.0001830281        0.0001608303        0.0002133137
Ti         0.0000281941       -0.0001511775       -0.0003063426
Ti        -0.0000158856        0.0002225061       -0.0000058510
Ti         0.0001081474       -0.0001194798        0.0000160192
Ti         0.0000285631       -0.0002314102       -0.0002197436
Ti         0.0001687990        0.0000635393        0.0002478085
Ti        -0.0002546881        0.0001769901       -0.0000132217
Ti         0.0000903321        0.0000004063        0.0000364851
Ti         0.0001034676       -0.0001142343       -0.0000111134
Ti        -0.0000425783        0.0001223713        0.0000307829
Ti         0.0001915055        0.0001236411        0.0002073591
Ti        -0.0001411706       -0.0000442134       -0.0001910576
Ti        -0.0000448986       -0.0001600567       -0.0001809655
Ti         0.0000883835       -0.0000264595        0.0002770927
Ti        -0.0001854271        0.0001919965       -0.0000344061
Ti         0.0001215098       -0.0000797020        0.0000967346
Ti        -0.0000020807       -0.0000914827        0.0000930472
Ti        -0.0001869748        0.0000060840       -0.0000892442
Ti         0.0001688823        0.0001662549        0.0001736571
Ti        -0.0001149858       -0.0001684211       -0.0002371500
Ti        -0.0002106439        0.0000531973       -0.0000735005
Ti         0.0001309905       -0.0000778558        0.0000916540
Ti        -0.0000680339       -0.0001641067       -0.0002168976
Ti         0.0000674218        0.0001754801        0.0002042537
Ti         0.0002224569       -0.0000166823        0.0002499528
Ti        -0.0000977987       -0.0001945206       -0.0002018212
Ti         0.0000211560       -0.0000835192        0.0000828013
Ti        -0.0001594105        0.0001760179       -0.0000317180
Ti        -0.0000660380       -0.0001731873       -0.0001706924
Ti         0.0000826564        0.0000287469        0.0001917996
Ti        -0.0002346596        0.0002177384       -0.0000552597
Ti         0.0000784686       -0.0000773124        0.0000285930
Ti        -0.0000064125       -0.0001220211        0.0000158648
Ti        -0.0001634715        0.0001274539       -0.0000582727
Ti         0.0001601208        0.0001232492        0.0002025700
Ti        -0.0001764001       -0.0001296011       -0.0002623629
Ti        -0.0001585370        0.0001353618       -0.0000522470
Ti         0.0001288036       -0.0001358097        0.0000188301
Ti         0.0001903730        0.0000167318        0.0001644981
Ti        -0.0001128192       -0.0002061413       -0.0001960398
Ti         0.0000745943       -0.0000971245        0.0000376988
Ti        -0.0002431632        0.0000486467       -0.0000920964
Ti        -0.0001504655       -0.0001316955       -0.0002220239
Ti         0.0002001253       -0.0000498100        0.0002776304
Ti        -0.0001504379       -0.0002160990       -0.0001640089
Ti         0.0001508426        0.0000541705        0.0002404213
Ti        -0.0002465406        0.0000766982       -0.0000105191
Ti         0.0000762831       -0.0000993686        0.0000172405
O        -0.0000186902       -0.0000491491        0.0000059948
O        -0.0000223515        0.0000226230       -0.0000800442
O        -0.0000760760       -0.0000670312        0.0000640976
O         0.0000353939       -0.0000239255       -0.0001032768
O        -0.0000559735       -0.0000112833        0.0001233572
O        -0.0000266219        0.0000552799       -0.0001038804
O         0.0000627015       -0.0000533651       -0.0000586701
O        -0.0000169879       -0.0000183371        0.0000922528
O        -0.0000141466       -0.0001585974       -0.0000211074
O        -0.0000418688        0.0000575113       -0.0000829489
O        -0.0000757716       -0.0000662096        0.0000850646
O         0.0000670648       -0.0000217480       -0.0001577170
O        -0.0000202544       -0.0000996605        0.0001925223
O        -0.0000163857        0.0000544288       -0.0000274740
O         0.0001807020       -0.0000402154        0.0000124224
O        -0.0000421775       -0.0000084179        0.0000696624
O        -0.0000745192       -0.0000191373        0.0001466960
O         0.0000575136       -0.0000776463       -0.0000177167
O        -0.0000124182       -0.0000001449       -0.0001242549
O        -0.0001600240       -0.0000299807        0.0000375663
O        -0.0000253669        0.0000633135       -0.0001186650
O        -0.0000112279       -0.0000627030        0.0000762813
O        -0.0000290499        0.0001413011       -0.0000277620
O        -0.0000452210       -0.0000096997        0.0001296657
O        -0.0000259114       -0.0001657251       -0.0000247422
O        -0.0000280152        0.0000604784       -0.0001313742
O        -0.0001799460       -0.0000465472        0.0000251503
O         0.0000751701       -0.0000137445       -0.0001895076
O        -0.0000331505       -0.0000933836        0.0001654690
O        -0.0000210253        0.0001573785       -0.0000214446
O         0.0001445463       -0.0000569792        0.0000116801
O        -0.0000765993       -0.0000180958        0.0001272131
O        -0.0000192220       -0.0000619441        0.0000326557
O         0.0000120140        0.0000201822       -0.0000425913
O        -0.0000807504       -0.0000117984        0.0001037933
O         0.0000084417        0.0000289817       -0.0001137378
O         0.0000053187        0.0000130077        0.0001347237
O        -0.0000440118        0.0000358238       -0.0000964254
O         0.0000416890       -0.0000307073       -0.0000959258
O        -0.0000421205        0.0000159606        0.0001132857
O         0.0000532153        0.0000209361       -0.0000552448
O        -0.0000231426       -0.0000117214        0.0000986310
O        -0.0000036588        0.0000229479       -0.0000165776
O         0.0000694152       -0.0000578643        0.0000144650
O         0.0000230678       -0.0000023043       -0.0000673358
O        -0.0000697715        0.0000187834        0.0000683878
O        -0.0000330386       -0.0000016254        0.0000729970
O         0.0000695464        0.0000153358       -0.0001008483
O        -0.0000240556       -0.0001262634       -0.0000382987
O         0.0000238557        0.0000207667       -0.0000671319
O        -0.0000739180       -0.0000121557        0.0001208052
O         0.0000942924        0.0000064366       -0.0001870364
O         0.0000135491       -0.0000783879        0.0001465979
O        -0.0000391989        0.0000782480       -0.0000644386
O         0.0001493525       -0.0000295168       -0.0000262516
O        -0.0000521394        0.0000080741        0.0001044035
O         0.0000569167        0.0000763805       -0.0000482890
O        -0.0000371220       -0.0000962593        0.0001261445
O        -0.0000492097        0.0000114907        0.0001632626
O         0.0000374874       -0.0000378569       -0.0000750882
O         0.0000071122        0.0000307193       -0.0000578917
O         0.0000430426       -0.0001287757       -0.0000474442
O         0.0000137924        0.0000215289       -0.0001460900
O        -0.0001258724       -0.0000129347        0.0000607073
O        -0.0000026580        0.0000425219       -0.0000750294
O         0.0000445279       -0.0000752300        0.0000201664
O         0.0000143976        0.0000072854       -0.0001142302
O        -0.0001499363        0.0000184919        0.0000436573
O         0.0000293824        0.0001570540       -0.0000131639
O        -0.0000384005       -0.0000082338        0.0000420287
O        -0.0000645476       -0.0000108263        0.0001029608
O         0.0000468784        0.0000166814       -0.0000778635
O         0.0000105743       -0.0000241297        0.0000832229
O        -0.0000292083        0.0001319974       -0.0000517306
O         0.0001791514        0.0000217261       -0.0000238989
O        -0.0000408751       -0.0000040843        0.0000392757
O        -0.0000304004       -0.0000361058        0.0000499990
O         0.0000314233        0.0000551576       -0.0001112115
O        -0.0000839394        0.0000206981        0.0000888456
O         0.0000758193       -0.0000002048       -0.0001602217
O        -0.0000078711       -0.0001504355        0.0000026811
O         0.0000273988        0.0000862489       -0.0001074947
O        -0.0001409193       -0.0000120729        0.0000633059
O         0.0000726778        0.0000118550       -0.0001917183
O         0.0000324060       -0.0000932687        0.0001537515
O        -0.0000290401        0.0001033839       -0.0000129540
O         0.0001526016       -0.0000309167       -0.0000193353
O        -0.0000878193        0.0000057261        0.0001639508
O         0.0000275125        0.0001435501        0.0000185309
O        -0.0000278564       -0.0000733514        0.0001389553
O        -0.0000096043        0.0000967235       -0.0000703973
O         0.0000342740       -0.0001699494       -0.0000109195
O         0.0000582119        0.0000050462       -0.0001713518
O        -0.0001859755        0.0000327420        0.0000505371
O        -0.0000785375       -0.0000040622        0.0000970195
O         0.0001621164        0.0000151373       -0.0000073473
O         0.0000290374       -0.0000393933        0.0000155096
O         0.0000182811        0.0000033335       -0.0000130837
O        -0.0000730528        0.0000403902        0.0000631616
O         0.0000145740        0.0000175344       -0.0000767358
O        -0.0000071576        0.0000062114        0.0000814060
O         0.0000035453        0.0000351425       -0.0001140715
O         0.0000429869        0.0000284370       -0.0001222032
O        -0.0000332830       -0.0000049936        0.0000870056
O         0.0000340184       -0.0001377477        0.0000154745
O         0.0000103731        0.0000344535       -0.0000332652
O        -0.0000983791        0.0000543705        0.0001087916
O         0.0000592138        0.0000233617       -0.0001544899
O         0.0000072624       -0.0000587134        0.0001426335
O        -0.0000015219        0.0000411242       -0.0000589852
O         0.0001734012        0.0000197805       -0.0000212563
O        -0.0000569639       -0.0000099462        0.0000667760
O        -0.0000728220       -0.0000006250        0.0001125632
O         0.0000419149        0.0000345795       -0.0000716139
O         0.0000021186        0.0000208939       -0.0001008368
O        -0.0001110377        0.0000290414        0.0000567658
O         0.0000135696        0.0000607801       -0.0000681625
O         0.0000367101       -0.0000593918        0.0000803070
O        -0.0000019393        0.0001080643       -0.0000191217
O         0.0000205167       -0.0000436829        0.0000671755
O         0.0000235355       -0.0001326161       -0.0000079967
O         0.0000251142        0.0000649229       -0.0000887333
O        -0.0001530555        0.0000317121        0.0000498735
O         0.0001024435        0.0000210763       -0.0001696787
O        -0.0000010026       -0.0000857599        0.0001042034
O         0.0000002195        0.0001549311       -0.0000411119
O         0.0001394253        0.0000306566       -0.0000254632
O        -0.0000611516       -0.0000009990        0.0001090545
